# generated using pymatgen
data_Li2B4O7
_symmetry_space_group_name_H-M   'P 1'
_cell_length_a   9.44966062
_cell_length_b   9.44966062
_cell_length_c   10.45171632
_cell_angle_alpha   90.00000000
_cell_angle_beta   90.00000000
_cell_angle_gamma   90.00000000
_symmetry_Int_Tables_number   1
_chemical_formula_structural   Li2B4O7
_chemical_formula_sum   'Li16 B32 O56'
_cell_volume   933.29735771
_cell_formula_units_Z   8
loop_
 _symmetry_equiv_pos_site_id
 _symmetry_equiv_pos_as_xyz
  1  'x, y, z'
loop_
 _atom_type_symbol
 _atom_type_oxidation_number
  Li+  1.0
  B3+  3.0
  O2-  -2.0
loop_
 _atom_site_type_symbol
 _atom_site_label
 _atom_site_symmetry_multiplicity
 _atom_site_fract_x
 _atom_site_fract_y
 _atom_site_fract_z
 _atom_site_occupancy
  Li+  Li0  1  0.82529156  0.65917605  0.84097158  1
  Li+  Li1  1  0.84082395  0.82529156  0.59097158  1
  Li+  Li2  1  0.65917605  0.67470844  0.09097158  1
  Li+  Li3  1  0.67470844  0.84082395  0.34097158  1
  Li+  Li4  1  0.67470844  0.15917605  0.84097158  1
  Li+  Li5  1  0.82529156  0.34082395  0.34097158  1
  Li+  Li6  1  0.84082395  0.17470844  0.09097158  1
  Li+  Li7  1  0.65917605  0.32529156  0.59097158  1
  Li+  Li8  1  0.32529156  0.15917605  0.34097158  1
  Li+  Li9  1  0.34082395  0.32529156  0.09097158  1
  Li+  Li10  1  0.15917605  0.17470844  0.59097158  1
  Li+  Li11  1  0.17470844  0.34082395  0.84097158  1
  Li+  Li12  1  0.17470844  0.65917605  0.34097158  1
  Li+  Li13  1  0.32529156  0.84082395  0.84097158  1
  Li+  Li14  1  0.34082395  0.67470844  0.59097158  1
  Li+  Li15  1  0.15917605  0.82529156  0.09097158  1
  B3+  B16  1  0.83182961  0.91472360  0.95246419  1
  B3+  B17  1  0.58527640  0.83182961  0.70246419  1
  B3+  B18  1  0.91472360  0.66817039  0.20246419  1
  B3+  B19  1  0.66817039  0.58527640  0.45246419  1
  B3+  B20  1  0.16817039  0.91472360  0.45246419  1
  B3+  B21  1  0.33182961  0.58527640  0.95246419  1
  B3+  B22  1  0.08527640  0.66817039  0.70246419  1
  B3+  B23  1  0.41472360  0.83182961  0.20246419  1
  B3+  B24  1  0.61285073  0.94786038  0.08373950  1
  B3+  B25  1  0.05213962  0.11285073  0.33373950  1
  B3+  B26  1  0.94786038  0.88714927  0.33373950  1
  B3+  B27  1  0.88714927  0.55213962  0.58373950  1
  B3+  B28  1  0.88714927  0.44786038  0.08373950  1
  B3+  B29  1  0.11285073  0.55213962  0.08373950  1
  B3+  B30  1  0.55213962  0.38714927  0.33373950  1
  B3+  B31  1  0.44786038  0.61285073  0.33373950  1
  B3+  B32  1  0.33182961  0.41472360  0.45246419  1
  B3+  B33  1  0.08527640  0.33182961  0.20246419  1
  B3+  B34  1  0.41472360  0.16817039  0.70246419  1
  B3+  B35  1  0.16817039  0.08527640  0.95246419  1
  B3+  B36  1  0.66817039  0.41472360  0.95246419  1
  B3+  B37  1  0.83182961  0.08527640  0.45246419  1
  B3+  B38  1  0.58527640  0.16817039  0.20246419  1
  B3+  B39  1  0.91472360  0.33182961  0.70246419  1
  B3+  B40  1  0.11285073  0.44786038  0.58373950  1
  B3+  B41  1  0.55213962  0.61285073  0.83373950  1
  B3+  B42  1  0.44786038  0.38714927  0.83373950  1
  B3+  B43  1  0.38714927  0.05213962  0.08373950  1
  B3+  B44  1  0.38714927  0.94786038  0.58373950  1
  B3+  B45  1  0.61285073  0.05213962  0.58373950  1
  B3+  B46  1  0.05213962  0.88714927  0.83373950  1
  B3+  B47  1  0.94786038  0.11285073  0.83373950  1
  O2-  O48  1  0.71927931  0.86364300  0.01824863  1
  O2-  O49  1  0.13635700  0.21927931  0.26824863  1
  O2-  O50  1  0.86364300  0.78072069  0.26824863  1
  O2-  O51  1  0.78072069  0.63635700  0.51824863  1
  O2-  O52  1  0.28072069  0.86364300  0.51824863  1
  O2-  O53  1  0.21927931  0.63635700  0.01824863  1
  O2-  O54  1  0.63635700  0.28072069  0.26824863  1
  O2-  O55  1  0.36364300  0.71927931  0.26824863  1
  O2-  O56  1  0.43123351  0.32214942  0.40646597  1
  O2-  O57  1  0.17785058  0.43123351  0.15646597  1
  O2-  O58  1  0.82214942  0.56876649  0.15646597  1
  O2-  O59  1  0.56876649  0.67785058  0.40646597  1
  O2-  O60  1  0.06876649  0.82214942  0.40646597  1
  O2-  O61  1  0.43123351  0.67785058  0.90646597  1
  O2-  O62  1  0.67785058  0.06876649  0.15646597  1
  O2-  O63  1  0.82214942  0.43123351  0.65646597  1
  O2-  O64  1  0.84365179  0.05807176  0.93202828  1
  O2-  O65  1  0.44192824  0.84365179  0.68202828  1
  O2-  O66  1  0.05807176  0.65634821  0.18202828  1
  O2-  O67  1  0.65634821  0.44192824  0.43202828  1
  O2-  O68  1  0.15634821  0.05807176  0.43202828  1
  O2-  O69  1  0.84365179  0.94192824  0.43202828  1
  O2-  O70  1  0.94192824  0.65634821  0.68202828  1
  O2-  O71  1  0.55807176  0.84365179  0.18202828  1
  O2-  O72  1  0.00000000  0.50000000  0.50409080  1
  O2-  O73  1  0.00000000  0.00000000  0.25409080  1
  O2-  O74  1  0.00000000  0.50000000  0.00409080  1
  O2-  O75  1  0.50000000  0.50000000  0.25409080  1
  O2-  O76  1  0.21927931  0.36364300  0.51824863  1
  O2-  O77  1  0.63635700  0.71927931  0.76824863  1
  O2-  O78  1  0.36364300  0.28072069  0.76824863  1
  O2-  O79  1  0.28072069  0.13635700  0.01824863  1
  O2-  O80  1  0.78072069  0.36364300  0.01824863  1
  O2-  O81  1  0.71927931  0.13635700  0.51824863  1
  O2-  O82  1  0.13635700  0.78072069  0.76824863  1
  O2-  O83  1  0.86364300  0.21927931  0.76824863  1
  O2-  O84  1  0.93123351  0.82214942  0.90646597  1
  O2-  O85  1  0.67785058  0.93123351  0.65646597  1
  O2-  O86  1  0.32214942  0.06876649  0.65646597  1
  O2-  O87  1  0.06876649  0.17785058  0.90646597  1
  O2-  O88  1  0.56876649  0.32214942  0.90646597  1
  O2-  O89  1  0.93123351  0.17785058  0.40646597  1
  O2-  O90  1  0.17785058  0.56876649  0.65646597  1
  O2-  O91  1  0.32214942  0.93123351  0.15646597  1
  O2-  O92  1  0.34365179  0.55807176  0.43202828  1
  O2-  O93  1  0.94192824  0.34365179  0.18202828  1
  O2-  O94  1  0.55807176  0.15634821  0.68202828  1
  O2-  O95  1  0.15634821  0.94192824  0.93202828  1
  O2-  O96  1  0.65634821  0.55807176  0.93202828  1
  O2-  O97  1  0.34365179  0.44192824  0.93202828  1
  O2-  O98  1  0.44192824  0.15634821  0.18202828  1
  O2-  O99  1  0.05807176  0.34365179  0.68202828  1
  O2-  O100  1  0.50000000  0.00000000  0.00409080  1
  O2-  O101  1  0.50000000  0.50000000  0.75409080  1
  O2-  O102  1  0.50000000  0.00000000  0.50409080  1
  O2-  O103  1  0.00000000  0.00000000  0.75409080  1
