data_image0
_chemical_formula_structural       Si4O8
_chemical_formula_sum              "Si4 O8"
_cell_length_a       5.105290259274422
_cell_length_b       5.105293134013731
_cell_length_c       7.1327510199433055
_cell_angle_alpha    89.99999231472385
_cell_angle_beta     90.00001117848836
_cell_angle_gamma    89.99999504947303

_space_group_name_H-M_alt    "P 1"
_space_group_IT_number       1

loop_
  _space_group_symop_operation_xyz
  'x, y, z'

loop_
  _atom_site_type_symbol
  _atom_site_label
  _atom_site_symmetry_multiplicity
  _atom_site_fract_x
  _atom_site_fract_y
  _atom_site_fract_z
  _atom_site_occupancy
  Si  Si1       1.0  0.7078435177975139  0.7078434078915464  0.5000007327301059  1.0000
  Si  Si2       1.0  0.7921561385312285  0.2078448263429759  0.749999992630473  1.0000
  Si  Si3       1.0  0.20784313224227205  0.7921565657788937  0.25000072165023235  1.0000
  Si  Si4       1.0  0.29215567888581745  0.29215723832591656  3.7589832744977417e-07  1.0000
  O   O1        1.0  0.911605483799175  0.7578586974784668  0.32890442288763333  1.0000
  O   O2        1.0  0.08839448634738431  0.2421383529216575  0.8289040629810044  1.0000
  O   O3        1.0  0.7578612932446542  0.9116073024452656  0.6710951684455762  1.0000
  O   O4        1.0  0.25786149314632206  0.5883952797595661  0.07890425950542247  1.0000
  O   O5        1.0  0.24214072595243383  0.08839408993751058  0.17109608711651328  1.0000
  O   O6        1.0  0.411605905134327  0.7421383777593391  0.4210960002619719  1.0000
  O   O7        1.0  0.5883931229645399  0.2578614419479519  0.9210951226962045  1.0000
  O   O8        1.0  0.7421392050044219  0.41160465208456853  0.5789027751278908  1.0000
