data_image0
_chemical_formula_structural       Al8Si4O20
_chemical_formula_sum              "Al8 Si4 O20"
_cell_length_a       5.811119988541649
_cell_length_b       7.577352435399441
_cell_length_c       7.773246378113122
_cell_angle_alpha    89.9999959123753
_cell_angle_beta     90.00000374469133
_cell_angle_gamma    89.99997926664442

_space_group_name_H-M_alt    "P 1"
_space_group_IT_number       1

loop_
  _space_group_symop_operation_xyz
  'x, y, z'

loop_
  _atom_site_type_symbol
  _atom_site_label
  _atom_site_symmetry_multiplicity
  _atom_site_fract_x
  _atom_site_fract_y
  _atom_site_fract_z
  _atom_site_occupancy
  Al  Al1       1.0  0.9999980539234723  0.9999992048106686  4.5446351603899587e-07  1.0000
  Al  Al2       1.0  0.4999993214667924  0.9999991215506058  3.1741072911021665e-07  1.0000
  Al  Al3       1.0  0.9999998738684361  0.5000001333784103  0.5000007887976942  1.0000
  Al  Al4       1.0  0.499999463890875  0.4999987090602127  0.5000003065384806  1.0000
  Al  Al5       1.0  0.25000060779654104  0.356794669966414  0.8462768612778284  1.0000
  Al  Al6       1.0  0.7499991387262849  0.6432042694983614  0.1537239414304781  1.0000
  Al  Al7       1.0  0.7500027270389223  0.8567975579151933  0.6537237683085775  1.0000
  Al  Al8       1.0  0.24999685887718606  0.14320356639944248  0.3462741327045979  1.0000
  Si  Si1       1.0  0.7500049325478604  0.15309451418596984  0.3417674380652535  1.0000
  Si  Si2       1.0  0.24999576192695946  0.846907140177752  0.6582315572372717  1.0000
  Si  Si3       1.0  0.25000202399037347  0.6530951055328384  0.15823115931421447  1.0000
  Si  Si4       1.0  0.7499972329895421  0.3469060100028456  0.841767843759266  1.0000
  O   O1        1.0  0.014223468354746261  0.6261555324342594  0.27653312736457375  1.0000
  O   O2        1.0  0.5142203263288777  0.373835961772231  0.723460456972794  1.0000
  O   O3        1.0  0.9857773687376564  0.12616399076474855  0.22345349626872846  1.0000
  O   O4        1.0  0.48577690784039046  0.8738469699048058  0.7765291565257318  1.0000
  O   O5        1.0  0.9857767252138333  0.3738446527767122  0.7234663221794293  1.0000
  O   O6        1.0  0.48577835056235025  0.6261642394893326  0.2765378219272677  1.0000
  O   O7        1.0  0.01422209378023408  0.87383370041902  0.7765454357714229  1.0000
  O   O8        1.0  0.514223483405932  0.1261521529481815  0.22347249500018182  1.0000
  O   O9        1.0  0.7500025220715537  0.021858077364035354  0.5017494100487356  1.0000
  O   O10       1.0  0.24999869087646817  0.9781440017455908  0.49824974998521865  1.0000
  O   O11       1.0  0.25001070917326834  0.521854700553194  0.9982520206543208  1.0000
  O   O12       1.0  0.7499921579388791  0.47814395167801027  0.0017486963759249755  1.0000
  O   O13       1.0  0.7500013797951212  0.359922166867755  0.40904215042888825  1.0000
  O   O14       1.0  0.24999628508607616  0.6400795890884333  0.5909565357168423  1.0000
  O   O15       1.0  0.25000383714412694  0.8599244532204563  0.09096186230213617  1.0000
  O   O16       1.0  0.7499972554794764  0.14007725813964841  0.9090396465287165  1.0000
  O   O17       1.0  0.24999589738705116  0.35767310555514814  0.4336552979228384  1.0000
  O   O18       1.0  0.7500043307067452  0.6423263096427742  0.5663459252924381  1.0000
  O   O19       1.0  0.7499949256966697  0.8576742280184859  0.0663451897259983  1.0000
  O   O20       1.0  0.25000717667849387  0.1423254043856379  0.933656564346114  1.0000
