data_image0
_chemical_formula_structural       Si4O8
_chemical_formula_sum              "Si4 O8"
_cell_length_a       5.072941959810168
_cell_length_b       5.072943683488955
_cell_length_c       7.388742888729298
_cell_angle_alpha    89.99999346767741
_cell_angle_beta     90.00002302435344
_cell_angle_gamma    90.00000710094507

_space_group_name_H-M_alt    "P 1"
_space_group_IT_number       1

loop_
  _space_group_symop_operation_xyz
  'x, y, z'

loop_
  _atom_site_type_symbol
  _atom_site_label
  _atom_site_symmetry_multiplicity
  _atom_site_fract_x
  _atom_site_fract_y
  _atom_site_fract_z
  _atom_site_occupancy
  Si  Si1       1.0  0.9999992666086416  0.999998897065569  0.9999985002968279  1.0000
  Si  Si2       1.0  0.49999969507502007  1.1370448675231747e-06  0.7500010968320396  1.0000
  Si  Si3       1.0  0.500000563203478  0.5000008903227658  0.4999988054205485  1.0000
  Si  Si4       1.0  2.680054163286473e-07  0.49999844007476374  0.24999820017648924  1.0000
  O   O1        1.0  0.5828446686011193  0.7500003753984513  0.6250009905910582  1.0000
  O   O2        1.0  0.7500002955041443  0.08285772834452647  0.8749998400445401  1.0000
  O   O3        1.0  0.24999996768679153  0.9171439721908096  0.8750003522952265  1.0000
  O   O4        1.0  0.4171557572583867  0.25000073077767  0.6250001115447882  1.0000
  O   O5        1.0  0.08284859827967286  0.24999648347067596  0.1250004612683875  1.0000
  O   O6        1.0  0.24999857195890393  0.5828478730223007  0.37499991553482254  1.0000
  O   O7        1.0  0.7500008377878484  0.41715019072711185  0.37499937589007226  1.0000
  O   O8        1.0  0.9171513500639578  0.7500030322298994  0.12500240620674227  1.0000
