data_image0
_chemical_formula_structural       Ca4Al8Si16H16O56
_chemical_formula_sum              "Ca4 Al8 Si16 H16 O56"
_cell_length_a       15.152718114707588
_cell_length_b       13.128438883827984
_cell_length_c       7.656143441317108
_cell_angle_alpha    89.99982699287936
_cell_angle_beta     110.96426832237833
_cell_angle_gamma    90.00003017416027

_space_group_name_H-M_alt    "P 1"
_space_group_IT_number       1

loop_
  _space_group_symop_operation_xyz
  'x, y, z'

loop_
  _atom_site_type_symbol
  _atom_site_label
  _atom_site_symmetry_multiplicity
  _atom_site_fract_x
  _atom_site_fract_y
  _atom_site_fract_z
  _atom_site_occupancy
  Ca  Ca1       1.0  0.25418726234513067  0.5000025097134797  0.7500586042567657  1.0000
  Ca  Ca2       1.0  0.7458151281057294  0.5000024270738479  0.24991755814987993  1.0000
  Ca  Ca3       1.0  0.7541792992040656  5.083269277100999e-07  0.7500416994704758  1.0000
  Ca  Ca4       1.0  0.24583358673254257  8.145264536542738e-07  0.2499359170601363  1.0000
  Al  Al1       1.0  0.12375942417373367  0.6916251971395626  0.7439802324121032  1.0000
  Al  Al2       1.0  0.8762423913253681  0.6916324755342607  0.25601593176630866  1.0000
  Al  Al3       1.0  0.8762429120415551  0.3083691982209562  0.25601911803401955  1.0000
  Al  Al4       1.0  0.1237582713529594  0.3083745466403759  0.7439728082234103  1.0000
  Al  Al5       1.0  0.6237592669444997  0.191622321750784  0.7439803192679648  1.0000
  Al  Al6       1.0  0.37624420672339953  0.1916309084002612  0.2560182659767157  1.0000
  Al  Al7       1.0  0.376245283137192  0.808365231618316  0.25601845266897766  1.0000
  Al  Al8       1.0  0.6237580867513017  0.8083770925784934  0.7439775197279256  1.0000
  Si  Si1       1.0  0.24066832193605353  0.6176813739581148  0.1608342157039843  1.0000
  Si  Si2       1.0  0.7593279162776293  0.6176875894756574  0.8391549287747  1.0000
  Si  Si3       1.0  0.75932955164801  0.38231302296346853  0.8391536549061601  1.0000
  Si  Si4       1.0  0.2406693399973657  0.38231936667006655  0.16083409666313297  1.0000
  Si  Si5       1.0  0.08583595317568213  0.6181889259996842  0.3341116789518234  1.0000
  Si  Si6       1.0  0.9141574269861484  0.6181839866166874  0.6658647683211175  1.0000
  Si  Si7       1.0  0.9141581219358844  0.3818190991121531  0.6658630299255577  1.0000
  Si  Si8       1.0  0.08583496090854677  0.38181364465821027  0.3341118336832341  1.0000
  Si  Si9       1.0  0.7406673720614355  0.11768455723602482  0.1608409532486989  1.0000
  Si  Si10      1.0  0.2593298845253816  0.11768352524473183  0.8391626357859869  1.0000
  Si  Si11      1.0  0.2593293925969826  0.8823141051100757  0.8391573877633869  1.0000
  Si  Si12      1.0  0.7406671008705326  0.8823179906339654  0.1608371977913605  1.0000
  Si  Si13      1.0  0.5858243315003362  0.11818182842700405  0.3341103984183202  1.0000
  Si  Si14      1.0  0.4141625084250758  0.11818441228171574  0.6658901301417143  1.0000
  Si  Si15      1.0  0.41416288733180323  0.8818139547734622  0.6658856129198936  1.0000
  Si  Si16      1.0  0.5858261104841072  0.8818176358530386  0.33411273927387153  1.0000
  H   H1        1.0  0.8601269540538958  0.1979185569892346  0.7775082595480917  1.0000
  H   H2        1.0  0.13994768342779712  0.19795862309771908  0.22250381028433958  1.0000
  H   H3        1.0  0.13994772676017103  0.8020477313404304  0.22252944202407393  1.0000
  H   H4        1.0  0.860117413295077  0.8020776363511473  0.7775148267381509  1.0000
  H   H5        1.0  0.9305187766710276  0.12220301611401385  0.7437382618922226  1.0000
  H   H6        1.0  0.06953600582212062  0.12227382961619673  0.25629890825075174  1.0000
  H   H7        1.0  0.06953554879536171  0.8777385401422579  0.2563040988811481  1.0000
  H   H8        1.0  0.9305130348956959  0.8777892168445941  0.743743267044779  1.0000
  H   H9        1.0  0.36010056237826243  0.6979362183622123  0.7775476466804049  1.0000
  H   H10       1.0  0.6398445389956343  0.6979137447752851  0.22247466800287724  1.0000
  H   H11       1.0  0.6398478518103049  0.3020882660298921  0.22247856874085192  1.0000
  H   H12       1.0  0.36008295983814287  0.3020535159321442  0.7775601263591735  1.0000
  H   H13       1.0  0.4304894952465806  0.6222669450676118  0.7436578862321024  1.0000
  H   H14       1.0  0.5694684127494677  0.6221819293405919  0.25627683504833676  1.0000
  H   H15       1.0  0.5694680347410798  0.37781802866707254  0.25626663502580427  1.0000
  H   H16       1.0  0.43047032404043095  0.3777196851118271  0.7436519153181258  1.0000
  O   O1        1.0  0.2625122745864772  0.5000005800969145  0.23686806194268917  1.0000
  O   O2        1.0  0.7374825064198258  0.5000007976200439  0.7631529476097071  1.0000
  O   O3        1.0  0.20016222461174796  0.6162462940872963  0.9315869347237064  1.0000
  O   O4        1.0  0.7998406011722955  0.6162578478035863  0.06840287990899667  1.0000
  O   O5        1.0  0.7998414814749552  0.3837424867409434  0.0684020079985023  1.0000
  O   O6        1.0  0.20016288325598205  0.38375775216086877  0.9315843684074006  1.0000
  O   O7        1.0  0.14221413794298135  0.6194163380351422  0.5612794784598576  1.0000
  O   O8        1.0  0.8577972131511831  0.619399163501715  0.43869324784355906  1.0000
  O   O9        1.0  0.8577991628566423  0.38060444114773967  0.4386919313129048  1.0000
  O   O10       1.0  0.1422121284434344  0.3805872854375352  0.5612793500663478  1.0000
  O   O11       1.0  0.15699965137274982  0.6644277363984709  0.2314882229734852  1.0000
  O   O12       1.0  0.8429893038989457  0.6644307453194542  0.7684697140008787  1.0000
  O   O13       1.0  0.8429901259598566  0.3355688082713293  0.7684656756926783  1.0000
  O   O14       1.0  0.15699714548554572  0.33557490386714456  0.23148406722316084  1.0000
  O   O15       1.0  0.16527959823873006  0.8152246012982665  0.7540034990541618  1.0000
  O   O16       1.0  0.834713708441068  0.8152251086127262  0.24602744201625698  1.0000
  O   O17       1.0  0.834711829220958  0.18477886828013537  0.2460320589526369  1.0000
  O   O18       1.0  0.16528274463824352  0.18477654995480522  0.7540030284464726  1.0000
  O   O19       1.0  0.060056115081147075  0.5000014061072319  0.26542309007210335  1.0000
  O   O20       1.0  0.9399383928394636  0.50000118071468  0.734590260152003  1.0000
  O   O21       1.0  0.9934894883850334  0.6891873884801449  0.272420946909713  1.0000
  O   O22       1.0  0.006507840649173009  0.6891770453082405  0.727547329920737  1.0000
  O   O23       1.0  0.006507359364803021  0.3108236825196579  0.7275458412687942  1.0000
  O   O24       1.0  0.9934887732174674  0.31081492108675374  0.27241798069651035  1.0000
  O   O25       1.0  0.37269508436331317  0.6240862734178017  0.7716537292608814  1.0000
  O   O26       1.0  0.6272902963755199  0.6240565021801823  0.22838528712678083  1.0000
  O   O27       1.0  0.6272930005580987  0.3759452253712608  0.22838513817869543  1.0000
  O   O28       1.0  0.3726805048139281  0.37590321819384837  0.7716640609162679  1.0000
  O   O29       1.0  0.7625152591844263  9.817599390766128e-07  0.23686010302280322  1.0000
  O   O30       1.0  0.23748550874090252  0.9999996627018679  0.7631416791649168  1.0000
  O   O31       1.0  0.7001725727529888  0.11625091075086817  0.9315912224801396  1.0000
  O   O32       1.0  0.29984484345960066  0.11625065143504468  0.06841083290843328  1.0000
  O   O33       1.0  0.29984475167306773  0.8837474358427594  0.06840723052203153  1.0000
  O   O34       1.0  0.7001689410092353  0.8837514152660767  0.9315870814914538  1.0000
  O   O35       1.0  0.6421936940713951  0.11939662592991714  0.5612804961007601  1.0000
  O   O36       1.0  0.35780826795699283  0.11941477130601247  0.4387185221717449  1.0000
  O   O37       1.0  0.35780873338158764  0.8805861567237693  0.4387137042195701  1.0000
  O   O38       1.0  0.6421938722995774  0.88060147976292  0.5612824395931552  1.0000
  O   O39       1.0  0.6569891188810714  0.1644164671896001  0.2314874990070554  1.0000
  O   O40       1.0  0.3429878206898327  0.16443677429092685  0.768478513901656  1.0000
  O   O41       1.0  0.34298592771300584  0.8355598737017845  0.7684683732372383  1.0000
  O   O42       1.0  0.6569901838450517  0.835583129920769  0.23148707521447318  1.0000
  O   O43       1.0  0.6652818219428795  0.3152204862915795  0.7539774723349306  1.0000
  O   O44       1.0  0.3347125463043972  0.3152222832599194  0.24600205605143804  1.0000
  O   O45       1.0  0.3347138557828716  0.6847738976490538  0.24600249902334034  1.0000
  O   O46       1.0  0.6652813900625847  0.6847809427263974  0.7539807845550957  1.0000
  O   O47       1.0  0.5600163894671196  0.9999995572742284  0.26540885946730225  1.0000
  O   O48       1.0  0.4399390715716247  0.9999986693057415  0.7346052920504051  1.0000
  O   O49       1.0  0.4934915606353891  0.1891985367285617  0.2724488522132333  1.0000
  O   O50       1.0  0.5065165560392354  0.18917065838784883  0.7276070073106726  1.0000
  O   O51       1.0  0.5065156999166069  0.8108261403325129  0.7275989700385177  1.0000
  O   O52       1.0  0.49349362005910924  0.8107992299567655  0.2724467663262082  1.0000
  O   O53       1.0  0.8727006788347215  0.12406244511480884  0.7716428975901642  1.0000
  O   O54       1.0  0.1273606806774541  0.12410656318427779  0.2284132941009925  1.0000
  O   O55       1.0  0.12736450729544824  0.8759005243161538  0.2284343350443903  1.0000
  O   O56       1.0  0.8726954093965277  0.8759329987554295  0.7716508328891685  1.0000
