data_image0
_chemical_formula_structural       Ca4Si8B8O32
_chemical_formula_sum              "Ca4 Si8 B8 O32"
_cell_length_a       7.799353111300479
_cell_length_b       8.135328880573836
_cell_length_c       8.891657797891183
_cell_angle_alpha    90.00000226142322
_cell_angle_beta     90.00000057265312
_cell_angle_gamma    90.00000043420911

_space_group_name_H-M_alt    "P 1"
_space_group_IT_number       1

loop_
  _space_group_symop_operation_xyz
  'x, y, z'

loop_
  _atom_site_type_symbol
  _atom_site_label
  _atom_site_symmetry_multiplicity
  _atom_site_fract_x
  _atom_site_fract_y
  _atom_site_fract_z
  _atom_site_occupancy
  Ca  Ca1       1.0  0.2500000967609514  0.11147610459758134  0.4189943677214925  1.0000
  Ca  Ca2       1.0  0.7499998250163765  0.8885244259433502  0.5810051375176212  1.0000
  Ca  Ca3       1.0  0.25000015482721166  0.6114755261903022  0.08100479249330249  1.0000
  Ca  Ca4       1.0  0.7500000989977075  0.38852386276478235  0.9189951987860231  1.0000
  Si  Si1       1.0  0.05487403730939795  0.5567992538024629  0.6905089437243945  1.0000
  Si  Si2       1.0  0.5548740666583257  0.44320077649691164  0.3094909040057409  1.0000
  Si  Si3       1.0  0.4451258427137206  0.05679960200280658  0.8094915112758593  1.0000
  Si  Si4       1.0  0.945125936688556  0.9432009549358503  0.19050920135612423  1.0000
  Si  Si5       1.0  0.9451262436090946  0.44320087936269537  0.309490624417649  1.0000
  Si  Si6       1.0  0.4451263374524915  0.5567992684385448  0.6905087891432559  1.0000
  Si  Si7       1.0  0.5548736829689009  0.9432004792302773  0.1905088154157478  1.0000
  Si  Si8       1.0  0.05487351444593801  0.05679904572666172  0.809491188731778  1.0000
  B   B1        1.0  0.5789077496307707  0.25838054177364583  0.5811809854900163  1.0000
  B   B2        1.0  0.5789077634070785  0.7583806781346982  0.9188188670848999  1.0000
  B   B3        1.0  0.0789078303347211  0.24161900603417485  0.08118078937587274  1.0000
  B   B4        1.0  0.9210925343322128  0.2583806748905183  0.5811810206832151  1.0000
  B   B5        1.0  0.4210921316933136  0.741619203882172  0.41881807272245486  1.0000
  B   B6        1.0  0.07890746568452035  0.7416190764999354  0.41881942756721185  1.0000
  B   B7        1.0  0.9210925920960429  0.7583807562517698  0.9188188963300724  1.0000
  B   B8        1.0  0.42109265019329517  0.24161940264940068  0.08118131566437103  1.0000
  O   O1        1.0  0.25000004757730643  0.3157661179622021  0.07415273999231178  1.0000
  O   O2        1.0  0.7500000770410326  0.18423356811365818  0.5741530270475111  1.0000
  O   O3        1.0  0.24999983488938518  0.8157659763503005  0.42584696906241776  1.0000
  O   O4        1.0  0.7500001094320756  0.6842335955523994  0.9258467672584331  1.0000
  O   O5        1.0  0.2499997588509083  0.9919347848792037  0.8387349932507562  1.0000
  O   O6        1.0  0.7499998259736907  0.008064842391360419  0.16126515260997343  1.0000
  O   O7        1.0  0.2500001057120236  0.49193464898177885  0.6612654393876867  1.0000
  O   O8        1.0  0.7500002397462526  0.5080653909327109  0.33873486282265364  1.0000
  O   O9        1.0  0.9225036839843997  0.9014663813376707  0.8169043493575813  1.0000
  O   O10       1.0  0.4225039672697347  0.09853370924154758  0.18309634046955311  1.0000
  O   O11       1.0  0.5774961644540739  0.40146633544854865  0.6830958949929222  1.0000
  O   O12       1.0  0.07749659131120216  0.5985332171261316  0.31690460423428923  1.0000
  O   O13       1.0  0.00257249981323841  0.19794178340641216  0.9324012368163442  1.0000
  O   O14       1.0  0.5025734940135822  0.8020576620547265  0.06759892767078307  1.0000
  O   O15       1.0  0.49742666800062707  0.69794134140505  0.5675978921658349  1.0000
  O   O16       1.0  0.997426560971665  0.302058187166578  0.4324009574902489  1.0000
  O   O17       1.0  0.9974268476259505  0.8020588236415015  0.06759871127386904  1.0000
  O   O18       1.0  0.49742640193106075  0.19794254085779772  0.9324013812936758  1.0000
  O   O19       1.0  0.502573002962226  0.3020579780153109  0.4324009975820935  1.0000
  O   O20       1.0  0.002572907726710187  0.6979426327177815  0.5675993526266246  1.0000
  O   O21       1.0  0.041873200127133164  0.12696780708845506  0.6367570874496262  1.0000
  O   O22       1.0  0.5418735110625469  0.8730317917112207  0.3632428705082559  1.0000
  O   O23       1.0  0.4581260051942915  0.6269687647229377  0.863242683023784  1.0000
  O   O24       1.0  0.9581261702598122  0.3730313793083123  0.13675680675886617  1.0000
  O   O25       1.0  0.9581264692934391  0.8730317061654473  0.36324309040245356  1.0000
  O   O26       1.0  0.4581270396157958  0.1269680955902072  0.6367574227838759  1.0000
  O   O27       1.0  0.5418738552287611  0.3730317316677416  0.13675690091673282  1.0000
  O   O28       1.0  0.04187376793037004  0.6269685113522763  0.8632428361707166  1.0000
  O   O29       1.0  0.9225042019928793  0.40146635675264636  0.6830957462823446  1.0000
  O   O30       1.0  0.4225033754460783  0.5985329609783457  0.3169038616031884  1.0000
  O   O31       1.0  0.577496302660916  0.9014672171379933  0.8169051605204412  1.0000
  O   O32       1.0  0.07749632520596028  0.09853353060648086  0.18309573525639058  1.0000
