data_image0
_chemical_formula_structural       Ca4Mg4Si8O24
_chemical_formula_sum              "Ca4 Mg4 Si8 O24"
_cell_length_a       9.86184910952819
_cell_length_b       9.059599215973314
_cell_length_c       5.319348674549417
_cell_angle_alpha    90.00001705691189
_cell_angle_beta     105.98859384980814
_cell_angle_gamma    89.99999345726509

_space_group_name_H-M_alt    "P 1"
_space_group_IT_number       1

loop_
  _space_group_symop_operation_xyz
  'x, y, z'

loop_
  _atom_site_type_symbol
  _atom_site_label
  _atom_site_symmetry_multiplicity
  _atom_site_fract_x
  _atom_site_fract_y
  _atom_site_fract_z
  _atom_site_occupancy
  Ca  Ca1       1.0  8.708972677503569e-07  0.2991171847807832  0.24999893920228916  1.0000
  Ca  Ca2       1.0  0.9999993010535217  0.7008857223989743  0.7499992535583289  1.0000
  Ca  Ca3       1.0  0.5000023805894558  0.7991128558172428  0.2500036485876042  1.0000
  Ca  Ca4       1.0  0.49999971687368644  0.20088281010995224  0.749999503015219  1.0000
  Mg  Mg1       1.0  0.9999989198578086  0.9069523456620668  0.24999848720421974  1.0000
  Mg  Mg2       1.0  0.99999681656305  0.09305046050002112  0.7499983304546414  1.0000
  Mg  Mg3       1.0  0.49999967345994417  0.4069515311144843  0.24999761786875677  1.0000
  Mg  Mg4       1.0  0.500003699872043  0.5930420768807726  0.7500045939301043  1.0000
  Si  Si1       1.0  0.21308359484024872  0.4073428188745218  0.7701548997670987  1.0000
  Si  Si2       1.0  0.7869145425546108  0.592656499087825  0.22984783205643422  1.0000
  Si  Si3       1.0  0.7869201753023776  0.4073452241284322  0.7298503851846173  1.0000
  Si  Si4       1.0  0.2130860402035393  0.5926530730935449  0.2701563994239824  1.0000
  Si  Si5       1.0  0.7130855083246768  0.9073468100061064  0.7701546078301548  1.0000
  Si  Si6       1.0  0.286916421033288  0.09264871694480896  0.22984555340192897  1.0000
  Si  Si7       1.0  0.286913986818705  0.9073438468997408  0.7298448921356492  1.0000
  Si  Si8       1.0  0.7130787157494469  0.09264935575190374  0.2701517409094508  1.0000
  O   O1        1.0  0.8499889591699544  0.4817123420243119  0.4944165208456997  1.0000
  O   O2        1.0  0.15001421768002143  0.4817095025179112  0.005586557912352852  1.0000
  O   O3        1.0  0.1500163476564471  0.5182923923034924  0.5055946675202801  1.0000
  O   O4        1.0  0.8499885703223348  0.5182999186215979  0.9944077497417716  1.0000
  O   O5        1.0  0.8637413969629706  0.2524774491144921  0.8206263840620546  1.0000
  O   O6        1.0  0.1362601814706844  0.2524763836599893  0.6793736266299037  1.0000
  O   O7        1.0  0.13626020564006186  0.7475177043284368  0.17937500034230489  1.0000
  O   O8        1.0  0.8637416856375073  0.7475206873630503  0.3206274142526507  1.0000
  O   O9        1.0  0.6160150743581995  0.5871685775405703  0.1425751742491927  1.0000
  O   O10       1.0  0.38398530681626647  0.5871659973171685  0.3574240484074911  1.0000
  O   O11       1.0  0.38398308519485624  0.4128371840267195  0.8574217039325072  1.0000
  O   O12       1.0  0.6160206984985005  0.4128394954423499  0.6425775239765588  1.0000
  O   O13       1.0  0.3499832267391196  0.9817025412040302  0.494406337929333  1.0000
  O   O14       1.0  0.6500132534470265  0.9817066440005646  0.005586526996818719  1.0000
  O   O15       1.0  0.6500148664265567  0.01828925597885942  0.505590357681133  1.0000
  O   O16       1.0  0.3499880748231136  0.018289655366498948  0.994410273054022  1.0000
  O   O17       1.0  0.3637456177603799  0.7524829732681465  0.8206294969469357  1.0000
  O   O18       1.0  0.6362556417283387  0.7524857832289917  0.679369038588306  1.0000
  O   O19       1.0  0.6362593018505471  0.24751758099656493  0.1793766258869816  1.0000
  O   O20       1.0  0.36373090002579167  0.24752010570499922  0.32062294585903517  1.0000
  O   O21       1.0  0.11601759399690492  0.0871631441702023  0.142579849335732  1.0000
  O   O22       1.0  0.8839765790648394  0.08717116270271716  0.35742204949940126  1.0000
  O   O23       1.0  0.8839838442336526  0.9128386655931306  0.8574234977260401  1.0000
  O   O24       1.0  0.11601474581400809  0.9128334279311233  0.6425699818455165  1.0000
