data_image0
_chemical_formula_structural       Mg8Si4O16
_chemical_formula_sum              "Mg8 Si4 O16"
_cell_length_a       4.796106821245591
_cell_length_b       6.047151913536477
_cell_length_c       10.357514640865261
_cell_angle_alpha    89.99999607709772
_cell_angle_beta     89.9999789748167
_cell_angle_gamma    89.99999797862804

_space_group_name_H-M_alt    "P 1"
_space_group_IT_number       1

loop_
  _space_group_symop_operation_xyz
  'x, y, z'

loop_
  _atom_site_type_symbol
  _atom_site_label
  _atom_site_symmetry_multiplicity
  _atom_site_fract_x
  _atom_site_fract_y
  _atom_site_fract_z
  _atom_site_occupancy
  Mg  Mg1       1.0  9.16632383054577e-08  0.00021606229802483606  0.00022340655523120248  1.0000
  Mg  Mg2       1.0  0.5000179947757226  0.9997790455720909  0.49976813958183064  1.0000
  Mg  Mg3       1.0  0.9999960751014751  0.500224455475529  0.9997773933049177  1.0000
  Mg  Mg4       1.0  0.4999829139622645  0.49978468362901274  0.500228932518834  1.0000
  Mg  Mg5       1.0  0.009162618172794902  0.7498840388438145  0.2776093411632534  1.0000
  Mg  Mg6       1.0  0.509163800816512  0.25010976041394734  0.22238918998466686  1.0000
  Mg  Mg7       1.0  0.9908370519600516  0.24988514068519216  0.7223896250302437  1.0000
  Mg  Mg8       1.0  0.4908351196998675  0.7501116269495568  0.777610603350291  1.0000
  Si  Si1       1.0  0.9256628991784591  0.7500109233368315  0.5934505019393036  1.0000
  Si  Si2       1.0  0.4256636637927653  0.24999322017134734  0.9065515838350756  1.0000
  Si  Si3       1.0  0.07433632076795767  0.25001085907543846  0.4065519982829282  1.0000
  Si  Si4       1.0  0.5743363448307817  0.7499932498323552  0.09344858660931855  1.0000
  O   O1        1.0  0.2768257609864171  0.4671803023369618  0.8376584062803766  1.0000
  O   O2        1.0  0.7768328762275708  0.5328147920019588  0.662336575932226  1.0000
  O   O3        1.0  0.7231718126968416  0.9671806222860215  0.1623406924125012  1.0000
  O   O4        1.0  0.22316560466098379  0.032816597919434476  0.33766317908223265  1.0000
  O   O5        1.0  0.7233483661662707  0.5328305038960729  0.1622705075654519  1.0000
  O   O6        1.0  0.2233457312351614  0.4671707395068486  0.3377247869184745  1.0000
  O   O7        1.0  0.27665909082353096  0.03282782525101465  0.8377286582102078  1.0000
  O   O8        1.0  0.7766439684596064  0.9671701095167531  0.6622746413600668  1.0000
  O   O9        1.0  0.7780977778102659  0.7499042636393336  0.44697688811402075  1.0000
  O   O10       1.0  0.27809406779007273  0.25009685209629245  0.05302443939248025  1.0000
  O   O11       1.0  0.22190924911005486  0.24990400415196717  0.5530241905908089  1.0000
  O   O12       1.0  0.7219109544868642  0.7500973372815044  0.9469760522688516  1.0000
  O   O13       1.0  0.26612410899865  0.7500157134165103  0.5919859579659157  1.0000
  O   O14       1.0  0.7661261979731729  0.24998483772187413  0.908014477194495  1.0000
  O   O15       1.0  0.7338741566167355  0.2500164094611155  0.4080141658517208  1.0000
  O   O16       1.0  0.23387593496412257  0.7499861731143819  0.09198699946830206  1.0000
