data_image0
_chemical_formula_structural       Ca8Al12Si12H4O52
_chemical_formula_sum              "Ca8 Al12 Si12 H4 O52"
_cell_length_a       5.59764454464637
_cell_length_b       10.117455843153298
_cell_length_c       16.39737722874543
_cell_angle_alpha    89.99999919726619
_cell_angle_beta     90.00000871234649
_cell_angle_gamma    89.99999489929496

_space_group_name_H-M_alt    "P 1"
_space_group_IT_number       1

loop_
  _space_group_symop_operation_xyz
  'x, y, z'

loop_
  _atom_site_type_symbol
  _atom_site_label
  _atom_site_symmetry_multiplicity
  _atom_site_fract_x
  _atom_site_fract_y
  _atom_site_fract_z
  _atom_site_occupancy
  Ca  Ca1       1.0  0.2500001709823911  0.3843998241829398  0.9535789069113594  1.0000
  Ca  Ca2       1.0  0.7500027780979573  0.6156000676677518  0.04642063515938962  1.0000
  Ca  Ca3       1.0  0.7499990646893248  0.8844002702003952  0.5464210644523672  1.0000
  Ca  Ca4       1.0  0.24999928087363146  0.11559992337221371  0.453579019052291  1.0000
  Ca  Ca5       1.0  0.25000054297663676  0.0660110563335458  0.8680317721540741  1.0000
  Ca  Ca6       1.0  0.7500006818715886  0.9339885418210591  0.1319680681481888  1.0000
  Ca  Ca7       1.0  0.7500032877926577  0.5660110483058556  0.6319682207724047  1.0000
  Ca  Ca8       1.0  0.24999931229088226  0.43398888535946245  0.3680311755544487  1.0000
  Al  Al1       1.0  0.7500012009000957  0.19957881711753736  0.6075913928128731  1.0000
  Al  Al2       1.0  0.2500003632117744  0.8004213043036117  0.39240847365909626  1.0000
  Al  Al3       1.0  0.249999204687923  0.6995787615915516  0.8924091138573483  1.0000
  Al  Al4       1.0  0.7499991243721693  0.30042089067394234  0.10759128989770955  1.0000
  Al  Al5       1.0  0.49699068076388414  0.6894507012360229  0.24950368823794564  1.0000
  Al  Al6       1.0  0.9969909685297109  0.3105491747683363  0.7504961219084619  1.0000
  Al  Al7       1.0  0.50301010002969  0.1894503671892703  0.2504961787225408  1.0000
  Al  Al8       1.0  0.003010070383756365  0.8105500005275262  0.7495035409322975  1.0000
  Al  Al9       1.0  0.5030088534855648  0.31054931634285  0.7504962198951198  1.0000
  Al  Al10      1.0  0.003007949082457813  0.6894506579373082  0.24950367219788133  1.0000
  Al  Al11      1.0  0.4969894995802489  0.8105496597025145  0.7495038651489755  1.0000
  Al  Al12      1.0  0.9969897302005692  0.18945015882661617  0.25049640707809495  1.0000
  Si  Si1       1.0  0.2500004785106576  0.06510491347753886  0.6605757245538881  1.0000
  Si  Si2       1.0  0.7500001120937319  0.93489468154052  0.3394242574637023  1.0000
  Si  Si3       1.0  0.7499990761294036  0.565105221859482  0.8394242452189508  1.0000
  Si  Si4       1.0  0.24999992698735096  0.4348953046171042  0.16057596575059785  1.0000
  Si  Si5       1.0  0.7499995647601047  0.21693824396791608  0.9114846721690949  1.0000
  Si  Si6       1.0  0.2500001182931814  0.7830616161809782  0.08851566176426816  1.0000
  Si  Si7       1.0  0.25000003827451156  0.7169378441752942  0.5885155705869197  1.0000
  Si  Si8       1.0  0.7499996000521799  0.28306233691777183  0.41148457543719424  1.0000
  Si  Si9       1.0  0.2500002795657535  0.3915506908224297  0.5826932564073042  1.0000
  Si  Si10      1.0  0.7499997341777533  0.608449536548539  0.4173066467729758  1.0000
  Si  Si11      1.0  0.7500000305466655  0.8915509571625296  0.9173067652159663  1.0000
  Si  Si12      1.0  0.24999977062878515  0.10844927509473855  0.08269352029701081  1.0000
  H   H1        1.0  0.2500001943692712  0.5236716972952109  0.7684068463079261  1.0000
  H   H2        1.0  0.7500003283339192  0.47632805969094394  0.23159296658722006  1.0000
  H   H3        1.0  0.749999373119385  0.02367140135178015  0.7315929551960539  1.0000
  H   H4        1.0  0.25000018135130037  0.9763283182195373  0.26840688124075734  1.0000
  O   O1        1.0  0.24999972600568088  0.4253555364517336  0.7682032858910628  1.0000
  O   O2        1.0  0.7499999035292174  0.5746439528299448  0.23179699857316735  1.0000
  O   O3        1.0  0.7500001523811493  0.9253554026093029  0.7317968958892258  1.0000
  O   O4        1.0  0.2500001370874936  0.07464435104939209  0.26820345993368266  1.0000
  O   O5        1.0  0.7499994890560893  0.054769014533100256  0.9176532054211876  1.0000
  O   O6        1.0  0.250001427522551  0.945230899042995  0.08234696702403993  1.0000
  O   O7        1.0  0.24999528822629027  0.5547687392665228  0.582347546581365  1.0000
  O   O8        1.0  0.7499997915088693  0.4452314161473951  0.41765232658740514  1.0000
  O   O9        1.0  0.7500009064664339  0.21068854000556975  0.49844025238775524  1.0000
  O   O10       1.0  0.25000364580171325  0.7893113492665191  0.5015599286303299  1.0000
  O   O11       1.0  0.24999808791038497  0.7106873141133807  0.00156023730877932  1.0000
  O   O12       1.0  0.7500003289388864  0.289311414061365  0.9984403225974248  1.0000
  O   O13       1.0  0.2500005658944837  0.33544502588952063  0.492109735704331  1.0000
  O   O14       1.0  0.7500011147523771  0.6645554569134643  0.5078901474970772  1.0000
  O   O15       1.0  0.7499998569053012  0.835444313428602  0.007889868562821482  1.0000
  O   O16       1.0  0.25000004979082496  0.16455515099125695  0.9921100395301771  1.0000
  O   O17       1.0  0.750000495835861  0.44013135324553  0.7718330267520721  1.0000
  O   O18       1.0  0.249999453160924  0.559869191001917  0.22816676478634407  1.0000
  O   O19       1.0  0.24999997914706115  0.9401312805077932  0.7281666618293072  1.0000
  O   O20       1.0  0.7500000865976019  0.059868288077361054  0.27183322331993626  1.0000
  O   O21       1.0  0.250000293631844  0.18727105924134863  0.7292444139743025  1.0000
  O   O22       1.0  0.7499997847781321  0.8127289717787363  0.27075548530599186  1.0000
  O   O23       1.0  0.7500000554832028  0.6872710876129855  0.7707552126251651  1.0000
  O   O24       1.0  0.2499994247056361  0.3127285354740416  0.22924458292810623  1.0000
  O   O25       1.0  0.7500003833305944  0.19846261585281194  0.7202275021195721  1.0000
  O   O26       1.0  0.24999954009407704  0.8015367416828227  0.27977218490765143  1.0000
  O   O27       1.0  0.24999910315678858  0.6984624874979767  0.779772687060043  1.0000
  O   O28       1.0  0.7500000077753834  0.3015374074356666  0.2202277338784889  1.0000
  O   O29       1.0  0.49105318015492044  0.7424786370456256  0.13966283056530998  1.0000
  O   O30       1.0  0.9910526351200611  0.25752084094452543  0.8603371761783045  1.0000
  O   O31       1.0  0.5089469714353102  0.24247893133083995  0.3603371773265747  1.0000
  O   O32       1.0  0.008947227828686581  0.7575224586208953  0.6396626275843437  1.0000
  O   O33       1.0  0.5089468258885882  0.2575210226528097  0.8603370188537054  1.0000
  O   O34       1.0  0.008947059000656257  0.7424795389171744  0.13966321747091645  1.0000
  O   O35       1.0  0.4910535307534517  0.7575198024924256  0.6396630980419331  1.0000
  O   O36       1.0  0.9910527957513285  0.24247943097627006  0.3603373118306645  1.0000
  O   O37       1.0  0.5129251406238564  0.9293139717478429  0.39874817411561625  1.0000
  O   O38       1.0  0.01292697175439633  0.07068626060215992  0.6012512214401878  1.0000
  O   O39       1.0  0.4870750034425527  0.42931372092080383  0.1012515661305699  1.0000
  O   O40       1.0  0.9870741276138977  0.5706866837277259  0.8987488808000794  1.0000
  O   O41       1.0  0.48707415789924746  0.07068668873864245  0.6012513404727778  1.0000
  O   O42       1.0  0.9870745835793717  0.9293129576040454  0.3987484948604928  1.0000
  O   O43       1.0  0.5129233027534394  0.5706869053064301  0.8987485619066458  1.0000
  O   O44       1.0  0.012924561694622012  0.4293138639803705  0.10125170893946539  1.0000
  O   O45       1.0  0.4977545966645422  0.6481250915084026  0.3685395947108534  1.0000
  O   O46       1.0  0.9977552117472847  0.3518739428338638  0.6314600231774794  1.0000
  O   O47       1.0  0.5022456589927184  0.14812655756507273  0.1314598356956465  1.0000
  O   O48       1.0  0.00224618980373939  0.8518742484642378  0.8685404557513353  1.0000
  O   O49       1.0  0.502246084696983  0.3518752090977919  0.6314599703570444  1.0000
  O   O50       1.0  0.0022445086965401677  0.6481263847230399  0.36853995314319804  1.0000
  O   O51       1.0  0.49775452833349143  0.8518746323920283  0.8685400213470983  1.0000
  O   O52       1.0  0.9977538812967524  0.14812623378434697  0.1314597698086378  1.0000
