data_image0
_chemical_formula_structural       Ca12Si12O36
_chemical_formula_sum              "Ca12 Si12 O36"
_cell_length_a       7.157745906678132
_cell_length_b       7.384341937448981
_cell_length_c       15.623632754259228
_cell_angle_alpha    90.00000084005478
_cell_angle_beta     96.19740500158424
_cell_angle_gamma    89.99999798733202

_space_group_name_H-M_alt    "P 1"
_space_group_IT_number       1

loop_
  _space_group_symop_operation_xyz
  'x, y, z'

loop_
  _atom_site_type_symbol
  _atom_site_label
  _atom_site_symmetry_multiplicity
  _atom_site_fract_x
  _atom_site_fract_y
  _atom_site_fract_z
  _atom_site_occupancy
  Ca  Ca1       1.0  0.9685315644878822  0.8756418970054064  0.7476919480388813  1.0000
  Ca  Ca2       1.0  0.03146662169311713  0.3756424169513229  0.7523083851871025  1.0000
  Ca  Ca3       1.0  0.03146571983715898  0.12435710359041845  0.25230831756580263  1.0000
  Ca  Ca4       1.0  0.9685311610058442  0.6243582415575846  0.24769215956103632  1.0000
  Ca  Ca5       1.0  0.7413951588944963  0.6210760895650551  0.8973670817796965  1.0000
  Ca  Ca6       1.0  0.25860556059883605  0.12107711552808939  0.6026323363923541  1.0000
  Ca  Ca7       1.0  0.25860451918541805  0.3789215547045286  0.10263259146157971  1.0000
  Ca  Ca8       1.0  0.7413947769164502  0.8789224466966921  0.3973674407807304  1.0000
  Ca  Ca9       1.0  0.7439975216787336  0.1268055941209422  0.9005863365397492  1.0000
  Ca  Ca10      1.0  0.25600023419038787  0.6268064692614258  0.5994134200410365  1.0000
  Ca  Ca11      1.0  0.2560013269786342  0.8731958990775236  0.09941400465243093  1.0000
  Ca  Ca12      1.0  0.7439996950841625  0.37319368434978173  0.400586134977879  1.0000
  Si  Si1       1.0  0.44209911392209916  0.8763481342862213  0.8039360785342071  1.0000
  Si  Si2       1.0  0.557902250509174  0.37634820485544257  0.6960642742152428  1.0000
  Si  Si3       1.0  0.5578995460917594  0.12365227823168312  0.19606396602659384  1.0000
  Si  Si4       1.0  0.4421007009345795  0.6236520956482958  0.3039366652706396  1.0000
  Si  Si5       1.0  0.23240035688023314  0.5917620080299278  0.9082067253387345  1.0000
  Si  Si6       1.0  0.7676004522275678  0.0917623387387345  0.5917934061160698  1.0000
  Si  Si7       1.0  0.7675996871308616  0.40823776457974414  0.0917926969950644  1.0000
  Si  Si8       1.0  0.23239882492234729  0.9082386475277823  0.40820780195846185  1.0000
  Si  Si9       1.0  0.23037637658788515  0.1588619458766894  0.9082918748728213  1.0000
  Si  Si10      1.0  0.769623746342759  0.6588630644698199  0.5917099266097666  1.0000
  Si  Si11      1.0  0.769623566316798  0.8411376413159196  0.09170875681720687  1.0000
  Si  Si12      1.0  0.2303740112940268  0.3411359189597329  0.40829132775190524  1.0000
  O   O1        1.0  0.4078984041821749  0.054973219900798634  0.8672640147408427  1.0000
  O   O2        1.0  0.5921006385282809  0.5549729811342282  0.6327356514467636  1.0000
  O   O3        1.0  0.5921013988585806  0.945028597335454  0.1327354882364898  1.0000
  O   O4        1.0  0.40789565460478777  0.44502470323835364  0.3672628458236349  1.0000
  O   O5        1.0  0.4082798532435683  0.6956738223016368  0.8662833386065246  1.0000
  O   O6        1.0  0.5917211476059361  0.19567373348353886  0.6337166041714455  1.0000
  O   O7        1.0  0.5917216802214901  0.3043257389613947  0.13371679847646795  1.0000
  O   O8        1.0  0.40827496237643723  0.8043278280575795  0.3662821113060914  1.0000
  O   O9        1.0  0.27446727344398125  0.37534188674991265  0.8891671657437954  1.0000
  O   O10       1.0  0.7255285347351089  0.8753427885899037  0.6108328967247361  1.0000
  O   O11       1.0  0.7255310049433701  0.6246577208702558  0.11083364263614402  1.0000
  O   O12       1.0  0.27447175035620663  0.1246569984591706  0.3891649055265952  1.0000
  O   O13       1.0  0.6685747276978667  0.8759746735719826  0.8011822470686769  1.0000
  O   O14       1.0  0.33142752526565206  0.3759752061255428  0.6988193171402869  1.0000
  O   O15       1.0  0.2981199191798472  0.8768532969383677  0.7164806715142604  1.0000
  O   O16       1.0  0.33142425845789153  0.12402539593600925  0.19881877402073594  1.0000
  O   O17       1.0  0.23698870629740304  0.6265982405831577  0.010165726722300863  1.0000
  O   O18       1.0  0.7630101361459206  0.12659778846156478  0.48983383491792637  1.0000
  O   O19       1.0  0.7630118568361588  0.37340110963384626  0.9898332558003141  1.0000
  O   O20       1.0  0.2369927535600152  0.8734012235346027  0.5101677426469746  1.0000
  O   O21       1.0  0.2283062090303659  0.12408558982457418  0.0095516465129124  1.0000
  O   O22       1.0  0.7716939373341218  0.6240851964215132  0.4904501413135469  1.0000
  O   O23       1.0  0.7716940725979736  0.8759147593012083  0.9904490867231285  1.0000
  O   O24       1.0  0.22830490798413888  0.3759160989713731  0.5095510247959522  1.0000
  O   O25       1.0  0.035304553233416844  0.38625121827861747  0.3477554810374031  1.0000
  O   O26       1.0  0.96469575325186  0.886253626084518  0.1522415338871748  1.0000
  O   O27       1.0  0.9646974183098891  0.6137464827088633  0.6522417845704052  1.0000
  O   O28       1.0  0.0353042363583229  0.11374716628142442  0.8477586404670994  1.0000
  O   O29       1.0  0.035863315845121896  0.8619281609115805  0.3492961440255319  1.0000
  O   O30       1.0  0.9641375967064538  0.3619266879520136  0.1507018102876968  1.0000
  O   O31       1.0  0.9641384408215652  0.13807188175591206  0.6507032384764043  1.0000
  O   O32       1.0  0.035860665072109554  0.6380735632395182  0.849298756086152  1.0000
  O   O33       1.0  0.2981221837069653  0.6231478118882602  0.21648171430743487  1.0000
  O   O34       1.0  0.7018838493544344  0.12314855317621276  0.2835177990838865  1.0000
  O   O35       1.0  0.7018821821626803  0.37685141433574404  0.7835193477793664  1.0000
  O   O36       1.0  0.6685765711184192  0.6240262949730573  0.30118104996636375  1.0000
