# generated using pymatgen
data_Na2Ca2Al6Si9(H8O19)2
_symmetry_space_group_name_H-M   'P 1'
_cell_length_a   6.60419734
_cell_length_b   18.65848137
_cell_length_c   57.31681960
_cell_angle_alpha   90.00000000
_cell_angle_beta   90.00000000
_cell_angle_gamma   90.00000000
_symmetry_Int_Tables_number   1
_chemical_formula_structural   Na2Ca2Al6Si9(H8O19)2
_chemical_formula_sum   'Na16 Ca16 Al48 Si72 H128 O304'
_cell_volume   7062.82457406
_cell_formula_units_Z   8
loop_
 _symmetry_equiv_pos_site_id
 _symmetry_equiv_pos_as_xyz
  1  'x, y, z'
loop_
 _atom_type_symbol
 _atom_type_oxidation_number
  Na+  1.0
  Ca2+  2.0
  Al3+  3.0
  Si4+  4.0
  H+  1.0
  O2-  -2.0
loop_
 _atom_site_type_symbol
 _atom_site_label
 _atom_site_symmetry_multiplicity
 _atom_site_fract_x
 _atom_site_fract_y
 _atom_site_fract_z
 _atom_site_occupancy
  Na+  Na0  1  0.61995564  0.78343480  0.98898944  1
  Na+  Na1  1  0.61995564  0.71656520  0.51101056  1
  Na+  Na2  1  0.86995564  0.96656520  0.73898944  1
  Na+  Na3  1  0.86995564  0.53343480  0.76101056  1
  Na+  Na4  1  0.11995564  0.78343480  0.48898944  1
  Na+  Na5  1  0.11995564  0.71656520  0.01101056  1
  Na+  Na6  1  0.36995564  0.96656520  0.23898944  1
  Na+  Na7  1  0.36995564  0.53343480  0.26101056  1
  Na+  Na8  1  0.11995564  0.28343480  0.98898944  1
  Na+  Na9  1  0.11995564  0.21656520  0.51101056  1
  Na+  Na10  1  0.36995564  0.46656520  0.73898944  1
  Na+  Na11  1  0.36995564  0.03343480  0.76101056  1
  Na+  Na12  1  0.61995564  0.28343480  0.48898944  1
  Na+  Na13  1  0.61995564  0.21656520  0.01101056  1
  Na+  Na14  1  0.86995564  0.46656520  0.23898944  1
  Na+  Na15  1  0.86995564  0.03343480  0.26101056  1
  Ca2+  Ca16  1  0.37129587  0.52257464  0.92276252  1
  Ca2+  Ca17  1  0.37129587  0.97742536  0.57723748  1
  Ca2+  Ca18  1  0.12129587  0.72742536  0.67276252  1
  Ca2+  Ca19  1  0.12129587  0.77257464  0.82723748  1
  Ca2+  Ca20  1  0.87129587  0.52257464  0.42276252  1
  Ca2+  Ca21  1  0.87129587  0.97742536  0.07723748  1
  Ca2+  Ca22  1  0.62129587  0.72742536  0.17276252  1
  Ca2+  Ca23  1  0.62129587  0.77257464  0.32723748  1
  Ca2+  Ca24  1  0.87129587  0.02257464  0.92276252  1
  Ca2+  Ca25  1  0.87129587  0.47742536  0.57723748  1
  Ca2+  Ca26  1  0.62129587  0.22742536  0.67276252  1
  Ca2+  Ca27  1  0.62129587  0.27257464  0.82723748  1
  Ca2+  Ca28  1  0.37129587  0.02257464  0.42276252  1
  Ca2+  Ca29  1  0.37129587  0.47742536  0.07723748  1
  Ca2+  Ca30  1  0.12129587  0.22742536  0.17276252  1
  Ca2+  Ca31  1  0.12129587  0.27257464  0.32723748  1
  Al3+  Al32  1  0.63916699  0.96257952  0.96980521  1
  Al3+  Al33  1  0.63916699  0.53742048  0.53019479  1
  Al3+  Al34  1  0.88916699  0.78742048  0.71980521  1
  Al3+  Al35  1  0.88916699  0.71257952  0.78019479  1
  Al3+  Al36  1  0.35907402  0.79896931  0.88789039  1
  Al3+  Al37  1  0.35907402  0.70103069  0.61210961  1
  Al3+  Al38  1  0.60907402  0.95103069  0.63789039  1
  Al3+  Al39  1  0.60907402  0.54896931  0.86210961  1
  Al3+  Al40  1  0.35875981  0.71342857  0.94772631  1
  Al3+  Al41  1  0.35875981  0.78657143  0.55227369  1
  Al3+  Al42  1  0.10875981  0.53657143  0.69772631  1
  Al3+  Al43  1  0.10875981  0.96342857  0.80227369  1
  Al3+  Al44  1  0.13916699  0.96257952  0.46980521  1
  Al3+  Al45  1  0.13916699  0.53742048  0.03019479  1
  Al3+  Al46  1  0.38916699  0.78742048  0.21980521  1
  Al3+  Al47  1  0.38916699  0.71257952  0.28019479  1
  Al3+  Al48  1  0.85907402  0.79896931  0.38789039  1
  Al3+  Al49  1  0.85907402  0.70103069  0.11210961  1
  Al3+  Al50  1  0.10907402  0.95103069  0.13789039  1
  Al3+  Al51  1  0.10907402  0.54896931  0.36210961  1
  Al3+  Al52  1  0.85875981  0.71342857  0.44772631  1
  Al3+  Al53  1  0.85875981  0.78657143  0.05227369  1
  Al3+  Al54  1  0.60875981  0.53657143  0.19772631  1
  Al3+  Al55  1  0.60875981  0.96342857  0.30227369  1
  Al3+  Al56  1  0.13916699  0.46257952  0.96980521  1
  Al3+  Al57  1  0.13916699  0.03742048  0.53019479  1
  Al3+  Al58  1  0.38916699  0.28742048  0.71980521  1
  Al3+  Al59  1  0.38916699  0.21257952  0.78019479  1
  Al3+  Al60  1  0.85907402  0.29896931  0.88789039  1
  Al3+  Al61  1  0.85907402  0.20103069  0.61210961  1
  Al3+  Al62  1  0.10907402  0.45103069  0.63789039  1
  Al3+  Al63  1  0.10907402  0.04896931  0.86210961  1
  Al3+  Al64  1  0.85875981  0.21342857  0.94772631  1
  Al3+  Al65  1  0.85875981  0.28657143  0.55227369  1
  Al3+  Al66  1  0.60875981  0.03657143  0.69772631  1
  Al3+  Al67  1  0.60875981  0.46342857  0.80227369  1
  Al3+  Al68  1  0.63916699  0.46257952  0.46980521  1
  Al3+  Al69  1  0.63916699  0.03742048  0.03019479  1
  Al3+  Al70  1  0.88916699  0.28742048  0.21980521  1
  Al3+  Al71  1  0.88916699  0.21257952  0.28019479  1
  Al3+  Al72  1  0.35907402  0.29896931  0.38789039  1
  Al3+  Al73  1  0.35907402  0.20103069  0.11210961  1
  Al3+  Al74  1  0.60907402  0.45103069  0.13789039  1
  Al3+  Al75  1  0.60907402  0.04896931  0.36210961  1
  Al3+  Al76  1  0.35875981  0.21342857  0.44772631  1
  Al3+  Al77  1  0.35875981  0.28657143  0.05227369  1
  Al3+  Al78  1  0.10875981  0.03657143  0.19772631  1
  Al3+  Al79  1  0.10875981  0.46342857  0.30227369  1
  Si4+  Si80  1  0.25143451  0.00000000  0.00000000  1
  Si4+  Si81  1  0.50143451  0.75000000  0.75000000  1
  Si4+  Si82  1  0.97402075  0.74525626  0.91810317  1
  Si4+  Si83  1  0.97402075  0.75474374  0.58189683  1
  Si4+  Si84  1  0.72402075  0.50474374  0.66810317  1
  Si4+  Si85  1  0.72402075  0.99525626  0.83189683  1
  Si4+  Si86  1  0.37910935  0.59453633  0.98547707  1
  Si4+  Si87  1  0.37910935  0.90546367  0.51452293  1
  Si4+  Si88  1  0.12910935  0.65546367  0.73547707  1
  Si4+  Si89  1  0.12910935  0.84453633  0.76452293  1
  Si4+  Si90  1  0.59830504  0.66285852  0.90291988  1
  Si4+  Si91  1  0.59830504  0.83714148  0.59708012  1
  Si4+  Si92  1  0.34830504  0.58714148  0.65291988  1
  Si4+  Si93  1  0.34830504  0.91285852  0.84708012  1
  Si4+  Si94  1  0.60183068  0.84751301  0.93032933  1
  Si4+  Si95  1  0.60183068  0.65248699  0.56967067  1
  Si4+  Si96  1  0.85183068  0.90248699  0.68032933  1
  Si4+  Si97  1  0.85183068  0.59751301  0.81967067  1
  Si4+  Si98  1  0.75143451  0.00000000  0.50000000  1
  Si4+  Si99  1  0.00143451  0.75000000  0.25000000  1
  Si4+  Si100  1  0.47402075  0.74525626  0.41810317  1
  Si4+  Si101  1  0.47402075  0.75474374  0.08189683  1
  Si4+  Si102  1  0.22402075  0.50474374  0.16810317  1
  Si4+  Si103  1  0.22402075  0.99525626  0.33189683  1
  Si4+  Si104  1  0.87910935  0.59453633  0.48547707  1
  Si4+  Si105  1  0.87910935  0.90546367  0.01452293  1
  Si4+  Si106  1  0.62910935  0.65546367  0.23547707  1
  Si4+  Si107  1  0.62910935  0.84453633  0.26452293  1
  Si4+  Si108  1  0.09830504  0.66285852  0.40291988  1
  Si4+  Si109  1  0.09830504  0.83714148  0.09708012  1
  Si4+  Si110  1  0.84830504  0.58714148  0.15291988  1
  Si4+  Si111  1  0.84830504  0.91285852  0.34708012  1
  Si4+  Si112  1  0.10183068  0.84751301  0.43032933  1
  Si4+  Si113  1  0.10183068  0.65248699  0.06967067  1
  Si4+  Si114  1  0.35183068  0.90248699  0.18032933  1
  Si4+  Si115  1  0.35183068  0.59751301  0.31967067  1
  Si4+  Si116  1  0.75143451  0.50000000  0.00000000  1
  Si4+  Si117  1  0.00143451  0.25000000  0.75000000  1
  Si4+  Si118  1  0.47402075  0.24525626  0.91810317  1
  Si4+  Si119  1  0.47402075  0.25474374  0.58189683  1
  Si4+  Si120  1  0.22402075  0.00474374  0.66810317  1
  Si4+  Si121  1  0.22402075  0.49525626  0.83189683  1
  Si4+  Si122  1  0.87910935  0.09453633  0.98547707  1
  Si4+  Si123  1  0.87910935  0.40546367  0.51452293  1
  Si4+  Si124  1  0.62910935  0.15546367  0.73547707  1
  Si4+  Si125  1  0.62910935  0.34453633  0.76452293  1
  Si4+  Si126  1  0.09830504  0.16285852  0.90291988  1
  Si4+  Si127  1  0.09830504  0.33714148  0.59708012  1
  Si4+  Si128  1  0.84830504  0.08714148  0.65291988  1
  Si4+  Si129  1  0.84830504  0.41285852  0.84708012  1
  Si4+  Si130  1  0.10183068  0.34751301  0.93032933  1
  Si4+  Si131  1  0.10183068  0.15248699  0.56967067  1
  Si4+  Si132  1  0.35183068  0.40248699  0.68032933  1
  Si4+  Si133  1  0.35183068  0.09751301  0.81967067  1
  Si4+  Si134  1  0.25143451  0.50000000  0.50000000  1
  Si4+  Si135  1  0.50143451  0.25000000  0.25000000  1
  Si4+  Si136  1  0.97402075  0.24525626  0.41810317  1
  Si4+  Si137  1  0.97402075  0.25474374  0.08189683  1
  Si4+  Si138  1  0.72402075  0.00474374  0.16810317  1
  Si4+  Si139  1  0.72402075  0.49525626  0.33189683  1
  Si4+  Si140  1  0.37910935  0.09453633  0.48547707  1
  Si4+  Si141  1  0.37910935  0.40546367  0.01452293  1
  Si4+  Si142  1  0.12910935  0.15546367  0.23547707  1
  Si4+  Si143  1  0.12910935  0.34453633  0.26452293  1
  Si4+  Si144  1  0.59830504  0.16285852  0.40291988  1
  Si4+  Si145  1  0.59830504  0.33714148  0.09708012  1
  Si4+  Si146  1  0.34830504  0.08714148  0.15291988  1
  Si4+  Si147  1  0.34830504  0.41285852  0.34708012  1
  Si4+  Si148  1  0.60183068  0.34751301  0.43032933  1
  Si4+  Si149  1  0.60183068  0.15248699  0.06967067  1
  Si4+  Si150  1  0.85183068  0.40248699  0.18032933  1
  Si4+  Si151  1  0.85183068  0.09751301  0.31967067  1
  H+  H152  1  0.24402434  0.97156618  0.95032132  1
  H+  H153  1  0.24402434  0.52843382  0.54967868  1
  H+  H154  1  0.49402434  0.77843382  0.70032132  1
  H+  H155  1  0.49402434  0.72156618  0.79967868  1
  H+  H156  1  0.24990118  0.93413592  0.92559108  1
  H+  H157  1  0.24990118  0.56586408  0.57440892  1
  H+  H158  1  0.49990118  0.81586408  0.67559108  1
  H+  H159  1  0.49990118  0.68413592  0.82440892  1
  H+  H160  1  0.98069913  0.59469341  0.90616224  1
  H+  H161  1  0.98069913  0.90530659  0.59383776  1
  H+  H162  1  0.73069913  0.65530659  0.65616224  1
  H+  H163  1  0.73069913  0.84469341  0.84383776  1
  H+  H164  1  0.98967327  0.52079096  0.89299671  1
  H+  H165  1  0.98967327  0.97920904  0.60700329  1
  H+  H166  1  0.73967327  0.72920904  0.64299671  1
  H+  H167  1  0.73967327  0.77079096  0.85700329  1
  H+  H168  1  0.94782734  0.70439767  0.96612203  1
  H+  H169  1  0.94782734  0.79560233  0.53387797  1
  H+  H170  1  0.69782734  0.54560233  0.71612203  1
  H+  H171  1  0.69782734  0.95439767  0.78387797  1
  H+  H172  1  0.80851958  0.65215028  0.98128268  1
  H+  H173  1  0.80851958  0.84784972  0.51871732  1
  H+  H174  1  0.55851958  0.59784972  0.73128268  1
  H+  H175  1  0.55851958  0.90215028  0.76871732  1
  H+  H176  1  0.90227694  0.88293025  0.89602995  1
  H+  H177  1  0.90227694  0.61706975  0.60397005  1
  H+  H178  1  0.15227694  0.86706975  0.64602994  1
  H+  H179  1  0.15227694  0.63293025  0.85397005  1
  H+  H180  1  0.87393751  0.94619969  0.87717631  1
  H+  H181  1  0.87393751  0.55380031  0.62282369  1
  H+  H182  1  0.12393751  0.80380031  0.62717631  1
  H+  H183  1  0.12393751  0.69619969  0.87282369  1
  H+  H184  1  0.74402434  0.97156618  0.45032132  1
  H+  H185  1  0.74402434  0.52843382  0.04967868  1
  H+  H186  1  0.99402434  0.77843382  0.20032132  1
  H+  H187  1  0.99402434  0.72156618  0.29967868  1
  H+  H188  1  0.74990118  0.93413592  0.42559108  1
  H+  H189  1  0.74990118  0.56586408  0.07440892  1
  H+  H190  1  0.99990118  0.81586408  0.17559108  1
  H+  H191  1  0.99990118  0.68413592  0.32440892  1
  H+  H192  1  0.48069913  0.59469341  0.40616224  1
  H+  H193  1  0.48069913  0.90530659  0.09383776  1
  H+  H194  1  0.23069913  0.65530659  0.15616224  1
  H+  H195  1  0.23069913  0.84469341  0.34383776  1
  H+  H196  1  0.48967327  0.52079096  0.39299671  1
  H+  H197  1  0.48967327  0.97920904  0.10700329  1
  H+  H198  1  0.23967327  0.72920904  0.14299671  1
  H+  H199  1  0.23967327  0.77079096  0.35700329  1
  H+  H200  1  0.44782734  0.70439767  0.46612203  1
  H+  H201  1  0.44782734  0.79560233  0.03387797  1
  H+  H202  1  0.19782734  0.54560233  0.21612203  1
  H+  H203  1  0.19782734  0.95439767  0.28387797  1
  H+  H204  1  0.30851958  0.65215028  0.48128268  1
  H+  H205  1  0.30851958  0.84784972  0.01871732  1
  H+  H206  1  0.05851958  0.59784972  0.23128268  1
  H+  H207  1  0.05851958  0.90215028  0.26871732  1
  H+  H208  1  0.40227694  0.88293025  0.39602994  1
  H+  H209  1  0.40227694  0.61706975  0.10397006  1
  H+  H210  1  0.65227694  0.86706975  0.14602994  1
  H+  H211  1  0.65227694  0.63293025  0.35397006  1
  H+  H212  1  0.37393751  0.94619969  0.37717631  1
  H+  H213  1  0.37393751  0.55380031  0.12282369  1
  H+  H214  1  0.62393751  0.80380031  0.12717631  1
  H+  H215  1  0.62393751  0.69619969  0.37282369  1
  H+  H216  1  0.74402434  0.47156618  0.95032132  1
  H+  H217  1  0.74402434  0.02843382  0.54967868  1
  H+  H218  1  0.99402434  0.27843382  0.70032132  1
  H+  H219  1  0.99402434  0.22156618  0.79967868  1
  H+  H220  1  0.74990118  0.43413592  0.92559108  1
  H+  H221  1  0.74990118  0.06586408  0.57440892  1
  H+  H222  1  0.99990118  0.31586408  0.67559108  1
  H+  H223  1  0.99990118  0.18413592  0.82440892  1
  H+  H224  1  0.48069913  0.09469341  0.90616224  1
  H+  H225  1  0.48069913  0.40530659  0.59383776  1
  H+  H226  1  0.23069913  0.15530659  0.65616224  1
  H+  H227  1  0.23069913  0.34469341  0.84383776  1
  H+  H228  1  0.48967327  0.02079096  0.89299671  1
  H+  H229  1  0.48967327  0.47920904  0.60700329  1
  H+  H230  1  0.23967327  0.22920904  0.64299671  1
  H+  H231  1  0.23967327  0.27079096  0.85700329  1
  H+  H232  1  0.44782734  0.20439767  0.96612203  1
  H+  H233  1  0.44782734  0.29560233  0.53387797  1
  H+  H234  1  0.19782734  0.04560233  0.71612203  1
  H+  H235  1  0.19782734  0.45439767  0.78387797  1
  H+  H236  1  0.30851958  0.15215028  0.98128268  1
  H+  H237  1  0.30851958  0.34784972  0.51871732  1
  H+  H238  1  0.05851958  0.09784972  0.73128268  1
  H+  H239  1  0.05851958  0.40215028  0.76871732  1
  H+  H240  1  0.40227694  0.38293025  0.89602995  1
  H+  H241  1  0.40227694  0.11706975  0.60397005  1
  H+  H242  1  0.65227694  0.36706975  0.64602994  1
  H+  H243  1  0.65227694  0.13293025  0.85397005  1
  H+  H244  1  0.37393751  0.44619969  0.87717631  1
  H+  H245  1  0.37393751  0.05380031  0.62282369  1
  H+  H246  1  0.62393751  0.30380031  0.62717631  1
  H+  H247  1  0.62393751  0.19619969  0.87282369  1
  H+  H248  1  0.24402434  0.47156618  0.45032132  1
  H+  H249  1  0.24402434  0.02843382  0.04967868  1
  H+  H250  1  0.49402434  0.27843382  0.20032132  1
  H+  H251  1  0.49402434  0.22156618  0.29967868  1
  H+  H252  1  0.24990118  0.43413592  0.42559108  1
  H+  H253  1  0.24990118  0.06586408  0.07440892  1
  H+  H254  1  0.49990118  0.31586408  0.17559108  1
  H+  H255  1  0.49990118  0.18413592  0.32440892  1
  H+  H256  1  0.98069913  0.09469341  0.40616224  1
  H+  H257  1  0.98069913  0.40530659  0.09383776  1
  H+  H258  1  0.73069913  0.15530659  0.15616224  1
  H+  H259  1  0.73069913  0.34469341  0.34383776  1
  H+  H260  1  0.98967327  0.02079096  0.39299671  1
  H+  H261  1  0.98967327  0.47920904  0.10700329  1
  H+  H262  1  0.73967327  0.22920904  0.14299671  1
  H+  H263  1  0.73967327  0.27079096  0.35700329  1
  H+  H264  1  0.94782734  0.20439767  0.46612203  1
  H+  H265  1  0.94782734  0.29560233  0.03387797  1
  H+  H266  1  0.69782734  0.04560233  0.21612203  1
  H+  H267  1  0.69782734  0.45439767  0.28387797  1
  H+  H268  1  0.80851958  0.15215028  0.48128268  1
  H+  H269  1  0.80851958  0.34784972  0.01871732  1
  H+  H270  1  0.55851958  0.09784972  0.23128268  1
  H+  H271  1  0.55851958  0.40215028  0.26871732  1
  H+  H272  1  0.90227694  0.38293025  0.39602994  1
  H+  H273  1  0.90227694  0.11706975  0.10397006  1
  H+  H274  1  0.15227694  0.36706975  0.14602994  1
  H+  H275  1  0.15227694  0.13293025  0.35397006  1
  H+  H276  1  0.87393751  0.44619969  0.37717631  1
  H+  H277  1  0.87393751  0.05380031  0.12282369  1
  H+  H278  1  0.12393751  0.30380031  0.12717631  1
  H+  H279  1  0.12393751  0.19619969  0.37282369  1
  O2-  O280  1  0.09789069  0.72812044  0.94215046  1
  O2-  O281  1  0.09789069  0.77187956  0.55784954  1
  O2-  O282  1  0.84789069  0.52187956  0.69215046  1
  O2-  O283  1  0.84789069  0.97812044  0.80784954  1
  O2-  O284  1  0.12490954  0.76150273  0.89650128  1
  O2-  O285  1  0.12490954  0.73849727  0.60349872  1
  O2-  O286  1  0.37490954  0.98849727  0.64650128  1
  O2-  O287  1  0.37490954  0.51150273  0.85349872  1
  O2-  O288  1  0.38615849  0.98164956  0.97700120  1
  O2-  O289  1  0.38615849  0.51835044  0.52299880  1
  O2-  O290  1  0.63615849  0.76835044  0.72700120  1
  O2-  O291  1  0.63615849  0.73164956  0.77299880  1
  O2-  O292  1  0.65691773  0.92492958  0.94193927  1
  O2-  O293  1  0.65691773  0.57507042  0.55806073  1
  O2-  O294  1  0.90691773  0.82507042  0.69193927  1
  O2-  O295  1  0.90691773  0.67492959  0.80806073  1
  O2-  O296  1  0.57977428  0.58511170  0.89026454  1
  O2-  O297  1  0.57977428  0.91488830  0.60973546  1
  O2-  O298  1  0.32977428  0.66488830  0.64026454  1
  O2-  O299  1  0.32977428  0.83511170  0.85973546  1
  O2-  O300  1  0.38722917  0.67640966  0.97581755  1
  O2-  O301  1  0.38722917  0.82359034  0.52418245  1
  O2-  O302  1  0.13722917  0.57359034  0.72581755  1
  O2-  O303  1  0.13722917  0.92640966  0.77418245  1
  O2-  O304  1  0.45414410  0.65363896  0.92625924  1
  O2-  O305  1  0.45414410  0.84636104  0.57374076  1
  O2-  O306  1  0.20414410  0.59636104  0.67625924  1
  O2-  O307  1  0.20414410  0.90363896  0.82374076  1
  O2-  O308  1  0.44420794  0.86083817  0.90891060  1
  O2-  O309  1  0.44420794  0.63916183  0.59108940  1
  O2-  O310  1  0.69420794  0.88916183  0.65891060  1
  O2-  O311  1  0.69420794  0.61083817  0.84108940  1
  O2-  O312  1  0.73571031  0.90642928  0.99150233  1
  O2-  O313  1  0.73571031  0.59357072  0.50849767  1
  O2-  O314  1  0.98571031  0.84357072  0.74150233  1
  O2-  O315  1  0.98571031  0.65642928  0.75849767  1
  O2-  O316  1  0.29232162  0.53988818  0.96529336  1
  O2-  O317  1  0.29232162  0.96011182  0.53470664  1
  O2-  O318  1  0.04232162  0.71011182  0.71529336  1
  O2-  O319  1  0.04232162  0.78988818  0.78470664  1
  O2-  O320  1  0.53969280  0.72977728  0.88643403  1
  O2-  O321  1  0.53969280  0.77022272  0.61356597  1
  O2-  O322  1  0.28969280  0.52022272  0.63643403  1
  O2-  O323  1  0.28969280  0.97977728  0.86356597  1
  O2-  O324  1  0.50391683  0.79257743  0.94952798  1
  O2-  O325  1  0.50391683  0.70742257  0.55047202  1
  O2-  O326  1  0.75391683  0.95742257  0.69952798  1
  O2-  O327  1  0.75391683  0.54257743  0.80047202  1
  O2-  O328  1  0.81972961  0.81328009  0.92116780  1
  O2-  O329  1  0.81972961  0.68671991  0.57883220  1
  O2-  O330  1  0.06972961  0.93671991  0.67116780  1
  O2-  O331  1  0.06972961  0.56328009  0.82883220  1
  O2-  O332  1  0.83807405  0.67298982  0.91162294  1
  O2-  O333  1  0.83807405  0.82701018  0.58837706  1
  O2-  O334  1  0.58807405  0.57701018  0.66162294  1
  O2-  O335  1  0.58807405  0.92298982  0.83837706  1
  O2-  O336  1  0.61147210  0.57000544  0.99291429  1
  O2-  O337  1  0.61147210  0.92999456  0.50708571  1
  O2-  O338  1  0.36147210  0.67999456  0.74291429  1
  O2-  O339  1  0.36147210  0.82000544  0.75708571  1
  O2-  O340  1  0.16958330  0.96662477  0.93539854  1
  O2-  O341  1  0.16958330  0.53337523  0.56460146  1
  O2-  O342  1  0.41958330  0.78337523  0.68539854  1
  O2-  O343  1  0.41958330  0.71662477  0.81460146  1
  O2-  O344  1  0.07062417  0.55373862  0.90248695  1
  O2-  O345  1  0.07062417  0.94626138  0.59751305  1
  O2-  O346  1  0.82062417  0.69626138  0.65248695  1
  O2-  O347  1  0.82062417  0.80373862  0.84751305  1
  O2-  O348  1  0.87668058  0.69876557  0.98138678  1
  O2-  O349  1  0.87668058  0.80123443  0.51861322  1
  O2-  O350  1  0.62668058  0.55123443  0.73138678  1
  O2-  O351  1  0.62668058  0.94876557  0.76861322  1
  O2-  O352  1  0.89756797  0.93467302  0.89376457  1
  O2-  O353  1  0.89756797  0.56532698  0.60623543  1
  O2-  O354  1  0.14756797  0.81532698  0.64376457  1
  O2-  O355  1  0.14756797  0.68467301  0.85623543  1
  O2-  O356  1  0.59789069  0.72812044  0.44215046  1
  O2-  O357  1  0.59789069  0.77187956  0.05784954  1
  O2-  O358  1  0.34789069  0.52187956  0.19215046  1
  O2-  O359  1  0.34789069  0.97812044  0.30784954  1
  O2-  O360  1  0.62490954  0.76150273  0.39650128  1
  O2-  O361  1  0.62490954  0.73849727  0.10349872  1
  O2-  O362  1  0.87490954  0.98849727  0.14650128  1
  O2-  O363  1  0.87490954  0.51150273  0.35349872  1
  O2-  O364  1  0.88615849  0.98164956  0.47700120  1
  O2-  O365  1  0.88615849  0.51835044  0.02299880  1
  O2-  O366  1  0.13615849  0.76835044  0.22700120  1
  O2-  O367  1  0.13615849  0.73164956  0.27299880  1
  O2-  O368  1  0.15691773  0.92492958  0.44193927  1
  O2-  O369  1  0.15691773  0.57507042  0.05806073  1
  O2-  O370  1  0.40691773  0.82507042  0.19193927  1
  O2-  O371  1  0.40691773  0.67492959  0.30806073  1
  O2-  O372  1  0.07977428  0.58511170  0.39026454  1
  O2-  O373  1  0.07977428  0.91488830  0.10973546  1
  O2-  O374  1  0.82977428  0.66488830  0.14026454  1
  O2-  O375  1  0.82977428  0.83511170  0.35973546  1
  O2-  O376  1  0.88722917  0.67640966  0.47581755  1
  O2-  O377  1  0.88722917  0.82359034  0.02418245  1
  O2-  O378  1  0.63722917  0.57359034  0.22581755  1
  O2-  O379  1  0.63722917  0.92640966  0.27418245  1
  O2-  O380  1  0.95414410  0.65363896  0.42625924  1
  O2-  O381  1  0.95414410  0.84636104  0.07374076  1
  O2-  O382  1  0.70414410  0.59636104  0.17625924  1
  O2-  O383  1  0.70414410  0.90363896  0.32374076  1
  O2-  O384  1  0.94420794  0.86083817  0.40891060  1
  O2-  O385  1  0.94420794  0.63916183  0.09108940  1
  O2-  O386  1  0.19420794  0.88916183  0.15891060  1
  O2-  O387  1  0.19420794  0.61083817  0.34108940  1
  O2-  O388  1  0.23571031  0.90642928  0.49150233  1
  O2-  O389  1  0.23571031  0.59357072  0.00849767  1
  O2-  O390  1  0.48571031  0.84357072  0.24150233  1
  O2-  O391  1  0.48571031  0.65642928  0.25849767  1
  O2-  O392  1  0.79232162  0.53988818  0.46529336  1
  O2-  O393  1  0.79232162  0.96011182  0.03470664  1
  O2-  O394  1  0.54232162  0.71011182  0.21529336  1
  O2-  O395  1  0.54232162  0.78988818  0.28470664  1
  O2-  O396  1  0.03969280  0.72977728  0.38643403  1
  O2-  O397  1  0.03969280  0.77022272  0.11356597  1
  O2-  O398  1  0.78969280  0.52022272  0.13643403  1
  O2-  O399  1  0.78969280  0.97977728  0.36356597  1
  O2-  O400  1  0.00391683  0.79257743  0.44952798  1
  O2-  O401  1  0.00391683  0.70742257  0.05047202  1
  O2-  O402  1  0.25391683  0.95742257  0.19952798  1
  O2-  O403  1  0.25391683  0.54257743  0.30047202  1
  O2-  O404  1  0.31972961  0.81328009  0.42116780  1
  O2-  O405  1  0.31972961  0.68671991  0.07883220  1
  O2-  O406  1  0.56972961  0.93671991  0.17116780  1
  O2-  O407  1  0.56972961  0.56328009  0.32883220  1
  O2-  O408  1  0.33807405  0.67298982  0.41162294  1
  O2-  O409  1  0.33807405  0.82701018  0.08837706  1
  O2-  O410  1  0.08807405  0.57701018  0.16162294  1
  O2-  O411  1  0.08807405  0.92298982  0.33837706  1
  O2-  O412  1  0.11147210  0.57000544  0.49291429  1
  O2-  O413  1  0.11147210  0.92999456  0.00708571  1
  O2-  O414  1  0.86147210  0.67999456  0.24291429  1
  O2-  O415  1  0.86147210  0.82000544  0.25708571  1
  O2-  O416  1  0.66958330  0.96662477  0.43539854  1
  O2-  O417  1  0.66958330  0.53337523  0.06460146  1
  O2-  O418  1  0.91958330  0.78337523  0.18539854  1
  O2-  O419  1  0.91958330  0.71662477  0.31460146  1
  O2-  O420  1  0.57062417  0.55373862  0.40248695  1
  O2-  O421  1  0.57062417  0.94626138  0.09751305  1
  O2-  O422  1  0.32062417  0.69626138  0.15248695  1
  O2-  O423  1  0.32062417  0.80373862  0.34751305  1
  O2-  O424  1  0.37668058  0.69876557  0.48138678  1
  O2-  O425  1  0.37668058  0.80123443  0.01861322  1
  O2-  O426  1  0.12668058  0.55123443  0.23138678  1
  O2-  O427  1  0.12668058  0.94876557  0.26861322  1
  O2-  O428  1  0.39756797  0.93467302  0.39376457  1
  O2-  O429  1  0.39756797  0.56532698  0.10623543  1
  O2-  O430  1  0.64756797  0.81532698  0.14376457  1
  O2-  O431  1  0.64756797  0.68467301  0.35623543  1
  O2-  O432  1  0.59789069  0.22812045  0.94215046  1
  O2-  O433  1  0.59789069  0.27187955  0.55784954  1
  O2-  O434  1  0.34789069  0.02187955  0.69215046  1
  O2-  O435  1  0.34789069  0.47812045  0.80784954  1
  O2-  O436  1  0.62490954  0.26150273  0.89650128  1
  O2-  O437  1  0.62490954  0.23849727  0.60349872  1
  O2-  O438  1  0.87490954  0.48849727  0.64650128  1
  O2-  O439  1  0.87490954  0.01150273  0.85349872  1
  O2-  O440  1  0.88615849  0.48164956  0.97700120  1
  O2-  O441  1  0.88615849  0.01835044  0.52299880  1
  O2-  O442  1  0.13615849  0.26835044  0.72700120  1
  O2-  O443  1  0.13615849  0.23164956  0.77299880  1
  O2-  O444  1  0.15691773  0.42492959  0.94193927  1
  O2-  O445  1  0.15691773  0.07507041  0.55806073  1
  O2-  O446  1  0.40691773  0.32507041  0.69193927  1
  O2-  O447  1  0.40691773  0.17492959  0.80806073  1
  O2-  O448  1  0.07977428  0.08511170  0.89026454  1
  O2-  O449  1  0.07977428  0.41488830  0.60973546  1
  O2-  O450  1  0.82977428  0.16488830  0.64026454  1
  O2-  O451  1  0.82977428  0.33511170  0.85973546  1
  O2-  O452  1  0.88722917  0.17640966  0.97581755  1
  O2-  O453  1  0.88722917  0.32359034  0.52418245  1
  O2-  O454  1  0.63722917  0.07359034  0.72581755  1
  O2-  O455  1  0.63722917  0.42640966  0.77418245  1
  O2-  O456  1  0.95414410  0.15363896  0.92625924  1
  O2-  O457  1  0.95414410  0.34636104  0.57374076  1
  O2-  O458  1  0.70414410  0.09636104  0.67625924  1
  O2-  O459  1  0.70414410  0.40363896  0.82374076  1
  O2-  O460  1  0.94420794  0.36083817  0.90891060  1
  O2-  O461  1  0.94420794  0.13916183  0.59108940  1
  O2-  O462  1  0.19420794  0.38916183  0.65891060  1
  O2-  O463  1  0.19420794  0.11083817  0.84108940  1
  O2-  O464  1  0.23571031  0.40642928  0.99150233  1
  O2-  O465  1  0.23571031  0.09357072  0.50849767  1
  O2-  O466  1  0.48571031  0.34357072  0.74150233  1
  O2-  O467  1  0.48571031  0.15642928  0.75849767  1
  O2-  O468  1  0.79232162  0.03988818  0.96529336  1
  O2-  O469  1  0.79232162  0.46011182  0.53470664  1
  O2-  O470  1  0.54232162  0.21011182  0.71529336  1
  O2-  O471  1  0.54232162  0.28988818  0.78470664  1
  O2-  O472  1  0.03969280  0.22977728  0.88643403  1
  O2-  O473  1  0.03969280  0.27022272  0.61356597  1
  O2-  O474  1  0.78969280  0.02022272  0.63643403  1
  O2-  O475  1  0.78969280  0.47977728  0.86356597  1
  O2-  O476  1  0.00391683  0.29257743  0.94952798  1
  O2-  O477  1  0.00391683  0.20742257  0.55047202  1
  O2-  O478  1  0.25391683  0.45742257  0.69952798  1
  O2-  O479  1  0.25391683  0.04257743  0.80047202  1
  O2-  O480  1  0.31972961  0.31328009  0.92116780  1
  O2-  O481  1  0.31972961  0.18671991  0.57883220  1
  O2-  O482  1  0.56972961  0.43671991  0.67116780  1
  O2-  O483  1  0.56972961  0.06328009  0.82883220  1
  O2-  O484  1  0.33807405  0.17298982  0.91162294  1
  O2-  O485  1  0.33807405  0.32701018  0.58837706  1
  O2-  O486  1  0.08807405  0.07701018  0.66162294  1
  O2-  O487  1  0.08807405  0.42298982  0.83837706  1
  O2-  O488  1  0.11147210  0.07000544  0.99291429  1
  O2-  O489  1  0.11147210  0.42999456  0.50708571  1
  O2-  O490  1  0.86147210  0.17999456  0.74291429  1
  O2-  O491  1  0.86147210  0.32000544  0.75708571  1
  O2-  O492  1  0.66958330  0.46662477  0.93539854  1
  O2-  O493  1  0.66958330  0.03337523  0.56460146  1
  O2-  O494  1  0.91958330  0.28337523  0.68539854  1
  O2-  O495  1  0.91958330  0.21662477  0.81460146  1
  O2-  O496  1  0.57062417  0.05373862  0.90248695  1
  O2-  O497  1  0.57062417  0.44626138  0.59751305  1
  O2-  O498  1  0.32062417  0.19626138  0.65248695  1
  O2-  O499  1  0.32062417  0.30373862  0.84751305  1
  O2-  O500  1  0.37668058  0.19876557  0.98138678  1
  O2-  O501  1  0.37668058  0.30123443  0.51861322  1
  O2-  O502  1  0.12668058  0.05123443  0.73138678  1
  O2-  O503  1  0.12668058  0.44876557  0.76861322  1
  O2-  O504  1  0.39756797  0.43467301  0.89376457  1
  O2-  O505  1  0.39756797  0.06532699  0.60623543  1
  O2-  O506  1  0.64756797  0.31532699  0.64376457  1
  O2-  O507  1  0.64756797  0.18467301  0.85623543  1
  O2-  O508  1  0.09789069  0.22812045  0.44215046  1
  O2-  O509  1  0.09789069  0.27187955  0.05784954  1
  O2-  O510  1  0.84789069  0.02187955  0.19215046  1
  O2-  O511  1  0.84789069  0.47812045  0.30784954  1
  O2-  O512  1  0.12490954  0.26150273  0.39650128  1
  O2-  O513  1  0.12490954  0.23849727  0.10349872  1
  O2-  O514  1  0.37490954  0.48849727  0.14650128  1
  O2-  O515  1  0.37490954  0.01150273  0.35349872  1
  O2-  O516  1  0.38615849  0.48164956  0.47700120  1
  O2-  O517  1  0.38615849  0.01835044  0.02299880  1
  O2-  O518  1  0.63615849  0.26835044  0.22700120  1
  O2-  O519  1  0.63615849  0.23164956  0.27299880  1
  O2-  O520  1  0.65691773  0.42492959  0.44193927  1
  O2-  O521  1  0.65691773  0.07507041  0.05806073  1
  O2-  O522  1  0.90691773  0.32507041  0.19193927  1
  O2-  O523  1  0.90691773  0.17492959  0.30806073  1
  O2-  O524  1  0.57977428  0.08511170  0.39026454  1
  O2-  O525  1  0.57977428  0.41488830  0.10973546  1
  O2-  O526  1  0.32977428  0.16488830  0.14026454  1
  O2-  O527  1  0.32977428  0.33511170  0.35973546  1
  O2-  O528  1  0.38722917  0.17640966  0.47581755  1
  O2-  O529  1  0.38722917  0.32359034  0.02418245  1
  O2-  O530  1  0.13722917  0.07359034  0.22581755  1
  O2-  O531  1  0.13722917  0.42640966  0.27418245  1
  O2-  O532  1  0.45414410  0.15363896  0.42625924  1
  O2-  O533  1  0.45414410  0.34636104  0.07374076  1
  O2-  O534  1  0.20414410  0.09636104  0.17625924  1
  O2-  O535  1  0.20414410  0.40363896  0.32374076  1
  O2-  O536  1  0.44420794  0.36083817  0.40891060  1
  O2-  O537  1  0.44420794  0.13916183  0.09108940  1
  O2-  O538  1  0.69420794  0.38916183  0.15891060  1
  O2-  O539  1  0.69420794  0.11083817  0.34108940  1
  O2-  O540  1  0.73571031  0.40642928  0.49150233  1
  O2-  O541  1  0.73571031  0.09357072  0.00849767  1
  O2-  O542  1  0.98571031  0.34357072  0.24150233  1
  O2-  O543  1  0.98571031  0.15642928  0.25849767  1
  O2-  O544  1  0.29232162  0.03988818  0.46529336  1
  O2-  O545  1  0.29232162  0.46011182  0.03470664  1
  O2-  O546  1  0.04232162  0.21011182  0.21529336  1
  O2-  O547  1  0.04232162  0.28988818  0.28470664  1
  O2-  O548  1  0.53969280  0.22977728  0.38643403  1
  O2-  O549  1  0.53969280  0.27022272  0.11356597  1
  O2-  O550  1  0.28969280  0.02022272  0.13643403  1
  O2-  O551  1  0.28969280  0.47977728  0.36356597  1
  O2-  O552  1  0.50391683  0.29257743  0.44952798  1
  O2-  O553  1  0.50391683  0.20742257  0.05047202  1
  O2-  O554  1  0.75391683  0.45742257  0.19952798  1
  O2-  O555  1  0.75391683  0.04257743  0.30047202  1
  O2-  O556  1  0.81972961  0.31328009  0.42116780  1
  O2-  O557  1  0.81972961  0.18671991  0.07883220  1
  O2-  O558  1  0.06972961  0.43671991  0.17116780  1
  O2-  O559  1  0.06972961  0.06328009  0.32883220  1
  O2-  O560  1  0.83807405  0.17298982  0.41162294  1
  O2-  O561  1  0.83807405  0.32701018  0.08837706  1
  O2-  O562  1  0.58807405  0.07701018  0.16162294  1
  O2-  O563  1  0.58807405  0.42298982  0.33837706  1
  O2-  O564  1  0.61147210  0.07000544  0.49291429  1
  O2-  O565  1  0.61147210  0.42999456  0.00708571  1
  O2-  O566  1  0.36147210  0.17999456  0.24291429  1
  O2-  O567  1  0.36147210  0.32000544  0.25708571  1
  O2-  O568  1  0.16958330  0.46662477  0.43539854  1
  O2-  O569  1  0.16958330  0.03337523  0.06460146  1
  O2-  O570  1  0.41958330  0.28337523  0.18539854  1
  O2-  O571  1  0.41958330  0.21662477  0.31460146  1
  O2-  O572  1  0.07062417  0.05373862  0.40248695  1
  O2-  O573  1  0.07062417  0.44626138  0.09751305  1
  O2-  O574  1  0.82062417  0.19626138  0.15248695  1
  O2-  O575  1  0.82062417  0.30373862  0.34751305  1
  O2-  O576  1  0.87668058  0.19876557  0.48138678  1
  O2-  O577  1  0.87668058  0.30123443  0.01861322  1
  O2-  O578  1  0.62668058  0.05123443  0.23138678  1
  O2-  O579  1  0.62668058  0.44876557  0.26861322  1
  O2-  O580  1  0.89756797  0.43467301  0.39376457  1
  O2-  O581  1  0.89756797  0.06532699  0.10623543  1
  O2-  O582  1  0.14756797  0.31532699  0.14376457  1
  O2-  O583  1  0.14756797  0.18467301  0.35623543  1
